results/ricin///ligands/1IL4.A.9DG_301_A.lig
 OpenBabel09152019383D

 11 12  0  0  0  0  0  0  0  0999 V2000
   -1.3140    0.7870    7.8100 C   0  0  0  0  0  0  0  0  0  0  0  0
   -1.8760    1.0240    6.6050 C   0  0  0  0  0  0  0  0  0  0  0  0
   -0.9080    1.3330    5.6620 N   0  0  0  0  0  0  0  0  0  0  0  0
    0.2690    1.2600    6.3670 C   0  0  0  0  0  0  0  0  0  0  0  0
    1.6980    1.4600    6.0050 C   0  0  0  0  0  0  0  0  0  0  0  0
    2.0390    1.7600    4.8880 O   0  0  0  0  0  0  0  0  0  0  0  0
    2.5960    1.2830    7.0050 N   0  0  0  0  0  0  0  0  0  0  0  0
    2.2960    0.9720    8.1850 C   0  0  0  0  0  0  0  0  0  0  0  0
    3.3260    0.8100    9.1260 N   0  0  0  0  0  0  0  0  0  0  0  0
    1.0070    0.7790    8.5930 N   0  0  0  0  0  0  0  0  0  0  0  0
    0.0080    0.9240    7.6810 C   0  0  0  0  0  0  0  0  0  0  0  0
  2  1  2  0  0  0  0
  3  4  2  0  0  0  0
  3  2  1  0  0  0  0
  4 11  1  0  0  0  0
  5  4  1  0  0  0  0
  5  7  1  0  0  0  0
  6  5  2  0  0  0  0
  7  8  2  0  0  0  0
  8 10  1  0  0  0  0
  8  9  1  0  0  0  0
 11  1  1  0  0  0  0
 11 10  2  0  0  0  0
M  END
