results/ricin///ligands/1IL5.A.DDP_301_A.lig
 OpenBabel09152019383D

 10 10  0  0  1  0  0  0  0  0999 V2000
  -15.3050   36.1340   39.5680 C   0  0  2  0  0  0  0  0  0  0  0  0
  -14.8540   36.4110   38.2670 N   0  0  0  0  0  0  0  0  0  0  0  0
  -14.4380   35.8540   40.6410 C   0  0  0  0  0  0  0  0  0  0  0  0
  -14.9550   35.5940   41.8670 N   0  0  0  0  0  0  0  0  0  0  0  0
  -16.2850   35.5970   42.0880 C   0  0  0  0  0  0  0  0  0  0  0  0
  -16.7830   35.3220   43.3700 N   0  0  0  0  0  0  0  0  0  0  0  0
  -17.1340   35.8660   41.0640 N   0  0  0  0  0  0  0  0  0  0  0  0
  -16.6840   36.1350   39.8150 C   0  0  0  0  0  0  0  0  0  0  0  0
  -17.5110   36.3600   38.9720 O   0  0  0  0  0  0  0  0  0  0  0  0
  -13.0580   35.8410   40.4570 O   0  0  0  0  0  0  0  0  0  0  0  0
  1  2  1  6  0  0  0
  1  8  1  0  0  0  0
  1  3  1  0  0  0  0
  3  4  1  0  0  0  0
  4  5  2  0  0  0  0
  5  6  1  0  0  0  0
  7  5  1  0  0  0  0
  8  7  1  0  0  0  0
  9  8  2  0  0  0  0
 10  3  2  0  0  0  0
M  END
