results/ricin///ligands/1RZO.C.GAL_5501_C.lig
 OpenBabel09152019383D

 12 12  0  0  1  0  0  0  0  0999 V2000
   39.5940   68.6630  -43.1910 C   0  0  2  0  0  0  0  0  0  0  0  0
   39.8350   67.7820  -44.4500 C   0  0  1  0  0  0  0  0  0  0  0  0
   40.6530   66.7120  -44.0450 C   0  0  2  0  0  0  0  0  0  0  0  0
   42.0830   67.1200  -43.4250 C   0  0  2  0  0  0  0  0  0  0  0  0
   41.8140   68.1340  -42.2880 C   0  0  1  0  0  0  0  0  0  0  0  0
   43.0760   68.8460  -41.8260 C   0  0  0  0  0  0  0  0  0  0  0  0
   38.7980   69.7480  -43.5590 O   0  0  0  0  0  0  0  0  0  0  0  0
   38.5820   67.2520  -44.9490 O   0  0  0  0  0  0  0  0  0  0  0  0
   41.0370   65.7180  -45.1170 O   0  0  0  0  0  0  0  0  0  0  0  0
   42.8920   67.7080  -44.4750 O   0  0  0  0  0  0  0  0  0  0  0  0
   40.8880   69.1980  -42.7160 O   0  0  0  0  0  0  0  0  0  0  0  0
   42.7860   69.7680  -40.7790 O   0  0  0  0  0  0  0  0  0  0  0  0
  1  7  1  6  0  0  0
  1 11  1  0  0  0  0
  2  8  1  1  0  0  0
  2  3  1  0  0  0  0
  2  1  1  0  0  0  0
  3  9  1  6  0  0  0
  3  4  1  0  0  0  0
  4 10  1  6  0  0  0
  4  5  1  0  0  0  0
  5  6  1  6  0  0  0
  6 12  1  0  0  0  0
 11  5  1  0  0  0  0
M  END
