results/ricin///ligands/1RZO.B.GAL_5003_B.lig
 OpenBabel09152019383D

 12 12  0  0  1  0  0  0  0  0999 V2000
    6.4010   73.3850   31.8710 C   0  0  2  0  0  0  0  0  0  0  0  0
    7.0740   72.3450   30.9360 C   0  0  1  0  0  0  0  0  0  0  0  0
    6.0460   71.6580   30.3010 C   0  0  2  0  0  0  0  0  0  0  0  0
    5.0580   70.8750   31.2800 C   0  0  2  0  0  0  0  0  0  0  0  0
    4.5090   71.9150   32.2830 C   0  0  1  0  0  0  0  0  0  0  0  0
    3.7490   71.2710   33.4310 C   0  0  0  0  0  0  0  0  0  0  0  0
    7.3930   74.0840   32.5360 O   0  0  0  0  0  0  0  0  0  0  0  0
    7.8640   73.0030   29.9340 O   0  0  0  0  0  0  0  0  0  0  0  0
    6.4830   70.5960   29.3590 O   0  0  0  0  0  0  0  0  0  0  0  0
    5.8380   69.8520   31.9530 O   0  0  0  0  0  0  0  0  0  0  0  0
    5.6030   72.6890   32.8910 O   0  0  0  0  0  0  0  0  0  0  0  0
    3.2390   72.2590   34.3420 O   0  0  0  0  0  0  0  0  0  0  0  0
  1  7  1  1  0  0  0
  1 11  1  0  0  0  0
  2  8  1  6  0  0  0
  2  1  1  0  0  0  0
  3  9  1  6  0  0  0
  3  2  1  0  0  0  0
  3  4  1  0  0  0  0
  4 10  1  1  0  0  0
  4  5  1  0  0  0  0
  5 11  1  0  0  0  0
  5  6  1  1  0  0  0
  6 12  1  0  0  0  0
M  END
