results/ricin///ligands/1RZO.B.GAL_5004_B.lig
 OpenBabel09152019383D

 12 12  0  0  1  0  0  0  0  0999 V2000
   17.1290   66.4130   16.1540 C   0  0  2  0  0  0  0  0  0  0  0  0
   15.8150   66.9270   16.8180 C   0  0  1  0  0  0  0  0  0  0  0  0
   15.8990   68.3320   16.8190 C   0  0  2  0  0  0  0  0  0  0  0  0
   17.1430   68.9510   17.6270 C   0  0  2  0  0  0  0  0  0  0  0  0
   18.4380   68.2930   17.0870 C   0  0  1  0  0  0  0  0  0  0  0  0
   19.6610   68.5620   17.9820 C   0  0  0  0  0  0  0  0  0  0  0  0
   17.0880   65.0210   16.1230 O   0  0  0  0  0  0  0  0  0  0  0  0
   14.6700   66.5330   16.0450 O   0  0  0  0  0  0  0  0  0  0  0  0
   14.7370   69.0670   17.4160 O   0  0  0  0  0  0  0  0  0  0  0  0
   16.9580   68.6490   19.0250 O   0  0  0  0  0  0  0  0  0  0  0  0
   18.2860   66.8200   16.9980 O   0  0  0  0  0  0  0  0  0  0  0  0
   20.8630   67.9640   17.4750 O   0  0  0  0  0  0  0  0  0  0  0  0
  1  7  1  1  0  0  0
  1  2  1  0  0  0  0
  1 11  1  0  0  0  0
  2  8  1  6  0  0  0
  2  3  1  0  0  0  0
  3  9  1  1  0  0  0
  3  4  1  0  0  0  0
  4 10  1  1  0  0  0
  5  4  1  0  0  0  0
  5  6  1  1  0  0  0
 11  5  1  0  0  0  0
 12  6  1  0  0  0  0
M  END
