results/ricin///ligands/1RZO.A.GAL_5001_A.lig
 OpenBabel09152019383D

 12 12  0  0  1  0  0  0  0  0999 V2000
    3.9450   31.6550  -18.9930 C   0  0  2  0  0  0  0  0  0  0  0  0
    2.8660   32.7700  -18.8460 C   0  0  1  0  0  0  0  0  0  0  0  0
    3.3740   33.6880  -17.9230 C   0  0  2  0  0  0  0  0  0  0  0  0
    3.6880   33.1080  -16.4700 C   0  0  2  0  0  0  0  0  0  0  0  0
    4.6210   31.8980  -16.6530 C   0  0  1  0  0  0  0  0  0  0  0  0
    4.7460   31.0790  -15.3750 C   0  0  0  0  0  0  0  0  0  0  0  0
    3.4800   30.7100  -19.8970 O   0  0  0  0  0  0  0  0  0  0  0  0
    2.6570   33.4530  -20.0960 O   0  0  0  0  0  0  0  0  0  0  0  0
    2.4980   34.8560  -17.6070 O   0  0  0  0  0  0  0  0  0  0  0  0
    2.4310   32.7160  -15.8660 O   0  0  0  0  0  0  0  0  0  0  0  0
    4.1120   30.9800  -17.6930 O   0  0  0  0  0  0  0  0  0  0  0  0
    5.6150   29.9590  -15.5380 O   0  0  0  0  0  0  0  0  0  0  0  0
  1  7  1  6  0  0  0
  1  2  1  0  0  0  0
  1 11  1  0  0  0  0
  2  8  1  6  0  0  0
  2  3  1  0  0  0  0
  3  9  1  1  0  0  0
  3  4  1  0  0  0  0
  4 10  1  6  0  0  0
  5  4  1  0  0  0  0
  5  6  1  1  0  0  0
 11  5  1  0  0  0  0
 12  6  1  0  0  0  0
M  END
