results/ricin///ligands/3RTJ.B.GAL_264_B.lig
 OpenBabel09152019383D

 11 11  0  0  1  0  0  0  0  0999 V2000
   31.7280   41.4020   12.7500 C   0  0  0  0  0  0  0  0  0  0  0  0
   31.2680   42.5510   13.6720 C   0  0  1  0  0  0  0  0  0  0  0  0
   30.5090   42.0130   14.8830 C   0  0  2  0  0  0  0  0  0  0  0  0
   29.3550   41.1140   14.4160 C   0  0  2  0  0  0  0  0  0  0  0  0
   29.9170   39.9980   13.5210 C   0  0  1  0  0  0  0  0  0  0  0  0
   28.8510   39.0510   12.9810 C   0  0  0  0  0  0  0  0  0  0  0  0
   32.3890   43.3020   14.1130 O   0  0  0  0  0  0  0  0  0  0  0  0
   30.0090   43.1000   15.6470 O   0  0  0  0  0  0  0  0  0  0  0  0
   28.4030   41.8830   13.6910 O   0  0  0  0  0  0  0  0  0  0  0  0
   30.6090   40.5660   12.3820 O   0  0  0  0  0  0  0  0  0  0  0  0
   27.8610   39.7410   12.2340 O   0  0  0  0  0  0  0  0  0  0  0  0
  1  2  1  0  0  0  0
  2  7  1  1  0  0  0
  2  3  1  0  0  0  0
  3  8  1  6  0  0  0
  4  9  1  6  0  0  0
  4  3  1  0  0  0  0
  5  6  1  6  0  0  0
  5  4  1  0  0  0  0
 10  1  1  0  0  0  0
 10  5  1  0  0  0  0
 11  6  1  0  0  0  0
M  END
