results/ricin///ligands/3RTJ.B.BGC_265_B.lig
 OpenBabel09152019383D

 12 12  0  0  1  0  0  0  0  0999 V2000
   33.4100   40.0340    8.5260 C   0  0  2  0  0  0  0  0  0  0  0  0
   32.4560   40.5000    9.6370 C   0  0  2  0  0  0  0  0  0  0  0  0
   33.1970   41.1860   10.8100 C   0  0  1  0  0  0  0  0  0  0  0  0
   34.3070   42.1490   10.3290 C   0  0  1  0  0  0  0  0  0  0  0  0
   35.2410   42.5500   11.4580 C   0  0  0  0  0  0  0  0  0  0  0  0
   34.3510   41.1790    8.1540 C   0  0  2  0  0  0  0  0  0  0  0  0
   35.2220   40.7890    7.1500 O   0  0  0  0  0  0  0  0  0  0  0  0
   32.6660   39.6230    7.3840 O   0  0  0  0  0  0  0  0  0  0  0  0
   31.7360   39.3840   10.1390 O   0  0  0  0  0  0  0  0  0  0  0  0
   32.2460   41.9540   11.5860 O   0  0  0  0  0  0  0  0  0  0  0  0
   35.1220   41.5400    9.3010 O   0  0  0  0  0  0  0  0  0  0  0  0
   35.5890   41.4310   12.2640 O   0  0  0  0  0  0  0  0  0  0  0  0
  1  8  1  6  0  0  0
  1  2  1  0  0  0  0
  2  9  1  1  0  0  0
  2  3  1  0  0  0  0
  3 10  1  6  0  0  0
  4  3  1  0  0  0  0
  4  5  1  1  0  0  0
  5 12  1  0  0  0  0
  6  7  1  6  0  0  0
  6  1  1  0  0  0  0
  6 11  1  0  0  0  0
 11  4  1  0  0  0  0
M  END
