results/ricin///ligands/4HV3.A.MLA_304_A.lig
 OpenBabel09152019383D

  7  6  0  0  0  0  0  0  0  0999 V2000
   -9.5360   22.8690  -22.0860 C   0  0  0  0  0  0  0  0  0  0  0  0
   -8.6730   22.2860  -21.2440 O   0  0  0  0  0  0  0  0  0  0  0  0
  -10.5170   22.2150  -22.4070 O   0  0  0  0  0  0  0  0  0  0  0  0
   -9.2950   24.2780  -22.5960 C   0  0  0  0  0  0  0  0  0  0  0  0
   -8.5190   24.3380  -23.8990 C   0  0  0  0  0  0  0  0  0  0  0  0
   -8.5360   25.4350  -24.6720 O   0  0  0  0  0  0  0  0  0  0  0  0
   -7.8620   23.3880  -24.2860 O   0  0  0  0  0  0  0  0  0  0  0  0
  1  2  1  0  0  0  0
  3  1  2  0  0  0  0
  4  1  1  0  0  0  0
  5  4  1  0  0  0  0
  6  5  2  0  0  0  0
  7  5  1  0  0  0  0
M  END
