results/ricin///ligands/4HV3.A.MLA_303_A.lig
 OpenBabel09152019383D

  7  6  0  0  0  0  0  0  0  0999 V2000
   -1.6190   15.3680    1.6230 C   0  0  0  0  0  0  0  0  0  0  0  0
   -1.4550   16.6800    1.4020 O   0  0  0  0  0  0  0  0  0  0  0  0
   -2.6170   14.7800    1.1750 O   0  0  0  0  0  0  0  0  0  0  0  0
   -0.7230   14.5150    2.4960 C   0  0  0  0  0  0  0  0  0  0  0  0
   -1.7490   13.8350    3.3730 C   0  0  0  0  0  0  0  0  0  0  0  0
   -1.9760   12.5100    3.3380 O   0  0  0  0  0  0  0  0  0  0  0  0
   -2.3940   14.5760    4.1120 O   0  0  0  0  0  0  0  0  0  0  0  0
  1  4  1  0  0  0  0
  2  1  1  0  0  0  0
  3  1  2  0  0  0  0
  4  5  1  0  0  0  0
  5  7  1  0  0  0  0
  6  5  2  0  0  0  0
M  END
