results/ricin///ligands/4HV7.X.MLA_303_X.lig
 OpenBabel09152019383D

  7  6  0  0  0  0  0  0  0  0999 V2000
    1.5160  -15.4650    1.7010 C   0  0  0  0  0  0  0  0  0  0  0  0
    2.5860  -14.9130    1.1470 O   0  0  0  0  0  0  0  0  0  0  0  0
    1.2670  -16.6430    1.4980 O   0  0  0  0  0  0  0  0  0  0  0  0
    0.6430  -14.6110    2.5820 C   0  0  0  0  0  0  0  0  0  0  0  0
    1.5740  -13.7540    3.4090 C   0  0  0  0  0  0  0  0  0  0  0  0
    2.4740  -14.2890    4.0380 O   0  0  0  0  0  0  0  0  0  0  0  0
    1.4420  -12.4290    3.4560 O   0  0  0  0  0  0  0  0  0  0  0  0
  1  4  1  0  0  0  0
  2  1  2  0  0  0  0
  3  1  1  0  0  0  0
  4  5  1  0  0  0  0
  5  7  2  0  0  0  0
  5  6  1  0  0  0  0
M  END
