results/cdk2///ligands/3QL8.A.X01_300_A.lig
 OpenBabel09152019543D

 16 17  0  0  0  0  0  0  0  0999 V2000
   91.7450   80.2410  -46.8380 N   0  0  0  0  0  0  0  0  0  0  0  0
   90.5930   81.8030  -48.2670 N   0  0  0  0  0  0  0  0  0  0  0  0
   89.7630   81.3680  -46.0550 N   0  0  0  0  0  0  0  0  0  0  0  0
   88.7720   82.7930  -47.4570 N   0  0  0  0  0  0  0  0  0  0  0  0
   96.4100   77.9140  -49.4410 N   0  0  0  0  0  0  0  0  0  0  0  0
   94.5420   79.5010  -49.8180 C   0  0  0  0  0  0  0  0  0  0  0  0
   94.4050   80.1290  -51.0870 C   0  0  0  0  0  0  0  0  0  0  0  0
   93.3310   81.0270  -51.3280 C   0  0  0  0  0  0  0  0  0  0  0  0
   92.3830   81.3080  -50.3090 C   0  0  0  0  0  0  0  0  0  0  0  0
   92.5080   80.6760  -49.0110 C   0  0  0  0  0  0  0  0  0  0  0  0
   93.6020   79.7700  -48.7840 C   0  0  0  0  0  0  0  0  0  0  0  0
   91.5920   80.9190  -48.0080 C   0  0  0  0  0  0  0  0  0  0  0  0
   89.7230   81.9780  -47.2570 C   0  0  0  0  0  0  0  0  0  0  0  0
   90.7980   80.5150  -45.9080 C   0  0  0  0  0  0  0  0  0  0  0  0
   95.5390   78.6630  -49.6100 C   0  0  0  0  0  0  0  0  0  0  0  0
   91.3580   82.1700  -50.5750 O   0  0  0  0  0  0  0  0  0  0  0  0
  1 14  1  0  0  0  0
  2 12  1  0  0  0  0
  2 13  2  0  0  0  0
  3 14  2  0  0  0  0
  4 13  1  0  0  0  0
  6 15  1  0  0  0  0
  6 11  1  0  0  0  0
  7  6  2  0  0  0  0
  8  7  1  0  0  0  0
  8  9  2  0  0  0  0
  9 10  1  0  0  0  0
 10 11  2  0  0  0  0
 10 12  1  0  0  0  0
 12  1  2  0  0  0  0
 13  3  1  0  0  0  0
 15  5  3  0  0  0  0
 16  9  1  0  0  0  0
M  END
