results/cdk2///ligands/3QQG.A.X06_300_A.lig
 OpenBabel09152019553D

 16 17  0  0  0  0  0  0  0  0999 V2000
  -91.4470   -8.3660  -47.6460 N   0  0  0  0  0  4  0  0  0  0  0  0
  -89.4880   -9.5320  -46.8670 N   0  0  0  0  0  0  0  0  0  0  0  0
  -90.3510   -9.9570  -49.0660 N   0  0  0  0  0  0  0  0  0  0  0  0
  -90.5590   -8.0410  -45.6030 N   0  0  0  0  0  0  0  0  0  0  0  0
  -88.5450  -10.9860  -48.2720 N   0  0  0  0  0  0  0  0  0  0  0  0
  -94.2940   -7.6240  -50.6220 C   0  0  0  0  0  0  0  0  0  0  0  0
  -94.1340   -8.2140  -51.9040 C   0  0  0  0  0  0  0  0  0  0  0  0
  -93.0370   -9.0940  -52.1500 C   0  0  0  0  0  0  0  0  0  0  0  0
  -92.0970   -9.3880  -51.1260 C   0  0  0  0  0  0  0  0  0  0  0  0
  -92.2400   -8.7950  -49.8160 C   0  0  0  0  0  0  0  0  0  0  0  0
  -93.3540   -7.9090  -49.5820 C   0  0  0  0  0  0  0  0  0  0  0  0
  -91.3230   -9.0530  -48.8110 C   0  0  0  0  0  0  0  0  0  0  0  0
  -90.4950   -8.6570  -46.7200 C   0  0  0  0  0  0  0  0  0  0  0  0
  -89.4740  -10.1500  -48.0650 C   0  0  0  0  0  0  0  0  0  0  0  0
  -91.0650  -10.2240  -51.3970 O   0  0  0  0  0  0  0  0  0  0  0  0
  -95.6260   -6.5550  -50.3430 Cl  0  0  0  0  0  0  0  0  0  0  0  0
  1 13  2  0  0  0  0
  2 13  1  0  0  0  0
  3 12  1  0  0  0  0
  3 14  1  0  0  0  0
  5 14  1  0  0  0  0
  6 16  1  0  0  0  0
  6 11  1  0  0  0  0
  7  6  2  0  0  0  0
  8  7  1  0  0  0  0
  8  9  2  0  0  0  0
  9 10  1  0  0  0  0
 10 11  2  0  0  0  0
 10 12  1  0  0  0  0
 12  1  2  0  0  0  0
 13  4  1  0  0  0  0
 14  2  2  0  0  0  0
 15  9  1  0  0  0  0
M  END
