results/cdk2///ligands/3QQK.A.X02_497_A.lig
 OpenBabel09152019553D

 18 19  0  0  1  0  0  0  0  0999 V2000
   62.6090  153.3670  -46.9750 C   0  0  0  0  0  0  0  0  0  0  0  0
   62.9490  154.6470  -46.7530 C   0  0  0  0  0  0  0  0  0  0  0  0
   64.2770  155.2210  -47.1900 C   0  0  0  0  0  0  0  0  0  0  0  0
   64.3310  155.2730  -48.6750 N   0  0  0  0  0  0  0  0  0  0  0  0
   65.2960  154.5150  -49.2260 C   0  0  0  0  0  0  0  0  0  0  0  0
   65.5940  154.5220  -50.4520 N   0  0  0  0  0  0  0  0  0  0  0  0
   66.6600  153.6400  -50.8810 C   0  0  0  0  0  0  0  0  0  0  0  0
   67.1440  152.9470  -49.8360 C   0  0  1  0  0  0  0  0  0  0  0  0
   66.3090  153.3730  -48.3050 S   0  0  0  0  0  0  0  0  0  0  0  0
   67.0840  153.5300  -52.1310 N   0  0  0  0  0  0  0  0  0  0  0  0
   68.2350  151.9300  -49.8750 C   0  0  0  0  0  0  0  0  0  0  0  0
   68.7100  151.1570  -48.6490 C   0  0  0  0  0  0  0  0  0  0  0  0
   67.7700  150.4830  -47.7990 C   0  0  0  0  0  0  0  0  0  0  0  0
   68.2240  149.7510  -46.6610 C   0  0  0  0  0  0  0  0  0  0  0  0
   69.6140  149.6850  -46.3670 C   0  0  0  0  0  0  0  0  0  0  0  0
   70.5530  150.3500  -47.2110 C   0  0  0  0  0  0  0  0  0  0  0  0
   70.1030  151.0830  -48.3500 C   0  0  0  0  0  0  0  0  0  0  0  0
   68.7750  151.6840  -50.9510 O   0  0  0  0  0  0  0  0  0  0  0  0
  1  2  2  0  0  0  0
  3  2  1  0  0  0  0
  4  3  1  0  0  0  0
  5  4  1  0  0  0  0
  5  9  1  0  0  0  0
  6  5  2  0  0  0  0
  7  6  1  0  0  0  0
  7  8  1  0  0  0  0
  8 11  1  6  0  0  0
  8  9  1  0  0  0  0
 10  7  2  0  0  0  0
 11 12  1  0  0  0  0
 12 17  2  0  0  0  0
 12 13  1  0  0  0  0
 13 14  2  0  0  0  0
 14 15  1  0  0  0  0
 16 15  2  0  0  0  0
 17 16  1  0  0  0  0
 18 11  2  0  0  0  0
M  END
