results/cdk2///ligands/3QRT.A.X14_535_A.lig
 OpenBabel09152019553D

 28 30  0  0  1  0  0  0  0  0999 V2000
   92.4740   46.8970  -14.1860 N   0  0  0  0  0  0  0  0  0  0  0  0
   93.2020   46.1070  -15.0090 N   0  0  0  0  0  0  0  0  0  0  0  0
   91.2360   47.9650  -11.9720 N   0  0  0  0  0  0  0  0  0  0  0  0
   87.6810   44.6610   -6.2790 N   0  0  0  0  0  0  0  0  0  0  0  0
   93.9920   45.2340  -14.3410 C   0  0  0  0  0  0  0  0  0  0  0  0
   93.7790   45.4430  -12.9840 C   0  0  0  0  0  0  0  0  0  0  0  0
   92.8250   46.5050  -12.9360 C   0  0  1  0  0  0  0  0  0  0  0  0
   94.9170   44.2400  -14.9690 C   0  0  0  0  0  0  0  0  0  0  0  0
   95.8700   43.6200  -13.9030 C   0  0  0  0  0  0  0  0  0  0  0  0
   95.1440   43.3520  -12.5340 C   0  0  2  0  0  0  0  0  0  0  0  0
   94.4930   44.6480  -11.9180 C   0  0  0  0  0  0  0  0  0  0  0  0
   96.1350   42.7080  -11.5010 C   0  0  0  0  0  0  0  0  0  0  0  0
   92.3110   47.0960  -11.8130 C   0  0  0  0  0  0  0  0  0  0  0  0
   90.6030   48.7110  -10.8700 C   0  0  0  0  0  0  0  0  0  0  0  0
   89.6530   47.9030  -10.0270 C   0  0  0  0  0  0  0  0  0  0  0  0
   88.9980   48.5660   -8.9700 C   0  0  0  0  0  0  0  0  0  0  0  0
   88.1100   47.8620   -8.1390 C   0  0  0  0  0  0  0  0  0  0  0  0
   87.8840   46.4930   -8.3760 C   0  0  0  0  0  0  0  0  0  0  0  0
   88.5310   45.8110   -9.4310 C   0  0  0  0  0  0  0  0  0  0  0  0
   89.4190   46.5170  -10.2610 C   0  0  0  0  0  0  0  0  0  0  0  0
   97.2490   43.6760  -11.0840 C   0  0  0  0  0  0  0  0  0  0  0  0
   96.7870   41.4820  -12.1210 C   0  0  0  0  0  0  0  0  0  0  0  0
   95.3660   42.2970  -10.2440 C   0  0  0  0  0  0  0  0  0  0  0  0
   94.2120   41.3330  -10.5580 C   0  0  0  0  0  0  0  0  0  0  0  0
   92.7860   46.9000  -10.7000 O   0  0  0  0  0  0  0  0  0  0  0  0
   85.9830   46.5740   -6.5840 O   0  0  0  0  0  0  0  0  0  0  0  0
   85.9530   44.7970   -8.1760 O   0  0  0  0  0  0  0  0  0  0  0  0
   86.7840   45.6130   -7.3470 S   0  0  0  0  0  0  0  0  0  0  0  0
  1  7  1  0  0  0  0
  2  5  1  0  0  0  0
  2  1  2  0  0  0  0
  3 13  1  0  0  0  0
  3 14  1  0  0  0  0
  5  6  2  0  0  0  0
  6  7  1  0  0  0  0
  6 11  1  0  0  0  0
  7 13  1  1  0  0  0
  8  5  1  0  0  0  0
  8  9  1  0  0  0  0
  9 10  1  0  0  0  0
 10 11  1  0  0  0  0
 10 12  1  1  0  0  0
 12 21  1  0  0  0  0
 12 23  1  0  0  0  0
 13 25  2  0  0  0  0
 14 15  1  0  0  0  0
 15 16  1  0  0  0  0
 16 17  2  0  0  0  0
 18 17  1  0  0  0  0
 18 28  1  0  0  0  0
 19 18  2  0  0  0  0
 20 15  2  0  0  0  0
 20 19  1  0  0  0  0
 22 12  1  0  0  0  0
 24 23  1  0  0  0  0
 27 28  2  0  0  0  0
 28 26  2  0  0  0  0
 28  4  1  0  0  0  0
M  END
