results/cdk2///ligands/3QRU.A.X19_493_A.lig
 OpenBabel09152019553D

 18 19  0  0  1  0  0  0  0  0999 V2000
  -51.6040  104.4400  -64.1990 N   0  0  0  0  0  0  0  0  0  0  0  0
  -52.5940  105.1810  -63.6230 N   0  0  0  0  0  0  0  0  0  0  0  0
  -49.8300  102.3020  -64.8810 N   0  0  0  0  0  0  0  0  0  0  0  0
  -53.2930  104.4790  -62.6860 C   0  0  0  0  0  0  0  0  0  0  0  0
  -52.7000  103.2110  -62.6700 C   0  0  0  0  0  0  0  0  0  0  0  0
  -51.6540  103.2310  -63.6270 C   0  0  0  0  0  0  0  0  0  0  0  0
  -54.4650  104.8710  -61.7940 C   0  0  0  0  0  0  0  0  0  0  0  0
  -54.7370  103.7850  -60.6930 C   0  0  0  0  0  0  0  0  0  0  0  0
  -54.6230  102.3230  -61.2670 C   0  0  1  0  0  0  0  0  0  0  0  0
  -53.1630  102.0950  -61.7500 C   0  0  0  0  0  0  0  0  0  0  0  0
  -55.1450  101.1800  -60.2740 C   0  0  0  0  0  0  0  0  0  0  0  0
  -50.7630  102.0610  -63.9230 C   0  0  0  0  0  0  0  0  0  0  0  0
  -48.8720  101.2660  -65.3020 C   0  0  0  0  0  0  0  0  0  0  0  0
  -54.4140  101.2220  -58.8980 C   0  0  0  0  0  0  0  0  0  0  0  0
  -54.9100   99.7610  -60.8770 C   0  0  0  0  0  0  0  0  0  0  0  0
  -56.6960  101.3830  -60.1070 C   0  0  0  0  0  0  0  0  0  0  0  0
  -57.4810  100.4000  -59.2100 C   0  0  0  0  0  0  0  0  0  0  0  0
  -50.8490  100.9760  -63.3660 O   0  0  0  0  0  0  0  0  0  0  0  0
  1  6  2  0  0  0  0
  1  2  1  0  0  0  0
  2  4  1  0  0  0  0
  3 12  1  0  0  0  0
  4  5  2  0  0  0  0
  4  7  1  0  0  0  0
  5 10  1  0  0  0  0
  6  5  1  0  0  0  0
  7  8  1  0  0  0  0
  9  8  1  0  0  0  0
  9 11  1  1  0  0  0
 10  9  1  0  0  0  0
 11 16  1  0  0  0  0
 11 14  1  0  0  0  0
 12  6  1  0  0  0  0
 12 18  2  0  0  0  0
 13  3  1  0  0  0  0
 15 11  1  0  0  0  0
 16 17  1  0  0  0  0
M  END
