results/cdk2///ligands/3QTR.A.X36_497_A.lig
 OpenBabel09152019553D

 21 23  0  0  1  0  0  0  0  0999 V2000
   91.7380   81.8750  -51.0020 N   0  0  0  0  0  0  0  0  0  0  0  0
   92.8210   81.1210  -51.3000 C   0  0  0  0  0  0  0  0  0  0  0  0
   93.3290   81.1370  -52.5370 N   0  0  0  0  0  0  0  0  0  0  0  0
   93.3100   80.3550  -50.2310 C   0  0  0  0  0  0  0  0  0  0  0  0
   94.4160   79.4660  -50.2440 C   0  0  1  0  0  0  0  0  0  0  0  0
   94.8760   78.6390  -49.0580 C   0  0  0  0  0  0  0  0  0  0  0  0
   93.9210   77.8670  -48.2200 C   0  0  0  0  0  0  0  0  0  0  0  0
   94.3930   77.1080  -47.1180 C   0  0  0  0  0  0  0  0  0  0  0  0
   95.7650   77.0490  -46.7690 C   0  0  0  0  0  0  0  0  0  0  0  0
   96.7440   77.7800  -47.5560 C   0  0  0  0  0  0  0  0  0  0  0  0
   96.3040   78.5690  -48.6940 C   0  0  0  0  0  0  0  0  0  0  0  0
   95.1300   79.3060  -51.3820 O   0  0  0  0  0  0  0  0  0  0  0  0
   92.3400   80.6440  -48.8520 S   0  0  0  0  0  0  0  0  0  0  0  0
   91.3620   81.7220  -49.7370 C   0  0  0  0  0  0  0  0  0  0  0  0
   90.2650   82.4100  -49.2730 N   0  0  0  0  0  0  0  0  0  0  0  0
   89.6400   82.4060  -48.0430 C   0  0  0  0  0  0  0  0  0  0  0  0
   88.4920   83.3120  -47.8780 C   0  0  0  0  0  0  0  0  0  0  0  0
   87.7790   83.3710  -46.6240 C   0  0  0  0  0  0  0  0  0  0  0  0
   88.1790   82.5310  -45.5010 C   0  0  0  0  0  0  0  0  0  0  0  0
   89.3060   81.6140  -45.6160 C   0  0  0  0  0  0  0  0  0  0  0  0
   90.0320   81.5460  -46.8650 C   0  0  0  0  0  0  0  0  0  0  0  0
  1 14  2  0  0  0  0
  2  1  1  0  0  0  0
  2  4  2  0  0  0  0
  3  2  1  0  0  0  0
  4 13  1  0  0  0  0
  5 12  1  6  0  0  0
  5  4  1  0  0  0  0
  5  6  1  0  0  0  0
  6 11  2  0  0  0  0
  6  7  1  0  0  0  0
  7  8  2  0  0  0  0
  8  9  1  0  0  0  0
 10  9  2  0  0  0  0
 11 10  1  0  0  0  0
 14 15  1  0  0  0  0
 14 13  1  0  0  0  0
 15 16  1  0  0  0  0
 16 17  2  0  0  0  0
 16 21  1  0  0  0  0
 17 18  1  0  0  0  0
 18 19  2  0  0  0  0
 20 19  1  0  0  0  0
 21 20  2  0  0  0  0
M  END
