results/cdk2///ligands/3QTS.A.X46_299_A.lig
 OpenBabel09152019543D

 23 25  0  0  1  0  0  0  0  0999 V2000
   94.6970   77.1150  -45.9280 C   0  0  0  0  0  0  0  0  0  0  0  0
   91.5880   81.7670  -51.0210 N   0  0  0  0  0  0  0  0  0  0  0  0
   91.9990   80.7250  -48.6970 S   0  0  0  0  0  0  0  0  0  0  0  0
   94.6490   78.6040  -45.9850 C   0  0  0  0  0  0  0  0  0  0  0  0
   93.1730   80.5960  -52.3660 N   0  0  0  0  0  0  0  0  0  0  0  0
   94.4070   79.2600  -47.2610 C   0  0  0  0  0  0  0  0  0  0  0  0
   90.1470   82.6800  -49.3430 N   0  0  0  0  0  0  0  0  0  0  0  0
   94.6470   78.7150  -50.9120 O   0  0  0  0  0  0  0  0  0  0  0  0
   94.2590   76.9840  -48.4130 C   0  0  0  0  0  0  0  0  0  0  0  0
   94.5010   76.3100  -47.1560 C   0  0  0  0  0  0  0  0  0  0  0  0
   94.8310   79.4290  -44.8390 O   0  0  0  0  0  0  0  0  0  0  0  0
   95.0620   79.0020  -43.5900 C   0  0  0  0  0  0  0  0  0  0  0  0
   94.2060   78.4580  -48.5010 C   0  0  0  0  0  0  0  0  0  0  0  0
   93.9560   79.1040  -49.8330 C   0  0  0  0  0  0  0  0  0  0  0  0
   92.9190   80.1850  -49.9980 C   0  0  0  0  0  0  0  0  0  0  0  0
   92.5840   80.8460  -51.1720 C   0  0  2  0  0  0  0  0  0  0  0  0
   91.1660   81.8130  -49.7360 C   0  0  0  0  0  0  0  0  0  0  0  0
   89.3870   82.6670  -48.1580 C   0  0  0  0  0  0  0  0  0  0  0  0
   89.5380   81.6480  -47.0320 C   0  0  0  0  0  0  0  0  0  0  0  0
   88.7290   81.7050  -45.8450 C   0  0  0  0  0  0  0  0  0  0  0  0
   87.7360   82.7710  -45.7110 C   0  0  0  0  0  0  0  0  0  0  0  0
   87.5680   83.7710  -46.7920 C   0  0  0  0  0  0  0  0  0  0  0  0
   88.3730   83.7200  -47.9870 C   0  0  0  0  0  0  0  0  0  0  0  0
  2 17  2  0  0  0  0
  4  1  1  0  0  0  0
  4 11  1  0  0  0  0
  6  4  2  0  0  0  0
  7 18  1  0  0  0  0
  8 14  1  0  0  0  0
  9 10  1  0  0  0  0
 10  1  2  0  0  0  0
 11 12  1  0  0  0  0
 13  9  2  0  0  0  0
 13  6  1  0  0  0  0
 14 13  1  0  0  0  0
 15 14  2  0  0  0  0
 15  3  1  0  0  0  0
 16  5  1  6  0  0  0
 16  2  1  0  0  0  0
 16 15  1  0  0  0  0
 17  7  1  0  0  0  0
 17  3  1  0  0  0  0
 18 23  2  0  0  0  0
 18 19  1  0  0  0  0
 19 20  2  0  0  0  0
 20 21  1  0  0  0  0
 22 21  2  0  0  0  0
 23 22  1  0  0  0  0
M  END
