results/cdk2///ligands/3QTU.A.X44_451_A.lig
 OpenBabel09152019543D

 29 31  0  0  1  0  0  0  0  0999 V2000
  119.0990   10.0720  -50.8930 N   0  0  0  0  0  0  0  0  0  0  0  0
  117.9680   10.7430  -49.0780 N   0  0  0  0  0  0  0  0  0  0  0  0
  120.5090    9.1440  -52.4730 N   0  0  0  0  0  0  0  0  0  0  0  0
  115.1730    8.9970  -43.2680 N   0  0  0  0  0  0  0  0  0  0  0  0
  124.0330    2.7550  -46.2640 N   0  0  0  0  0  0  0  0  0  0  0  0
  120.7350    8.5230  -50.2260 C   0  0  2  0  0  0  0  0  0  0  0  0
  120.1350    9.2420  -51.2580 C   0  0  0  0  0  0  0  0  0  0  0  0
  118.8990   10.0100  -49.6080 C   0  0  0  0  0  0  0  0  0  0  0  0
  117.2200   10.5150  -48.0490 C   0  0  0  0  0  0  0  0  0  0  0  0
  121.7910    7.6170  -50.3730 C   0  0  0  0  0  0  0  0  0  0  0  0
  122.2480    6.8630  -49.3100 C   0  0  0  0  0  0  0  0  0  0  0  0
  116.2110   11.4830  -47.7490 C   0  0  0  0  0  0  0  0  0  0  0  0
  115.3520   11.2960  -46.6460 C   0  0  0  0  0  0  0  0  0  0  0  0
  115.4980   10.1370  -45.8330 C   0  0  0  0  0  0  0  0  0  0  0  0
  116.4910    9.1800  -46.1170 C   0  0  0  0  0  0  0  0  0  0  0  0
  117.3480    9.3610  -47.2110 C   0  0  0  0  0  0  0  0  0  0  0  0
  123.6470    6.8180  -49.0270 C   0  0  0  0  0  0  0  0  0  0  0  0
  124.1200    6.0500  -47.9410 C   0  0  0  0  0  0  0  0  0  0  0  0
  123.2100    5.3230  -47.1270 C   0  0  0  0  0  0  0  0  0  0  0  0
  121.8210    5.3550  -47.3940 C   0  0  0  0  0  0  0  0  0  0  0  0
  121.3390    6.1220  -48.4860 C   0  0  0  0  0  0  0  0  0  0  0  0
  122.3110    7.4670  -51.4650 O   0  0  0  0  0  0  0  0  0  0  0  0
  113.2990    9.1170  -44.9710 O   0  0  0  0  0  0  0  0  0  0  0  0
  113.9530   11.1630  -43.9800 O   0  0  0  0  0  0  0  0  0  0  0  0
  125.1160    4.9040  -45.3710 O   0  0  0  0  0  0  0  0  0  0  0  0
  122.8970    4.4110  -44.6600 O   0  0  0  0  0  0  0  0  0  0  0  0
  119.9550    8.9300  -48.7470 S   0  0  0  0  0  0  0  0  0  0  0  0
  114.4140    9.8830  -44.4770 S   0  0  0  0  0  0  0  0  0  0  0  0
  123.8310    4.3560  -45.7570 S   0  0  0  0  0  0  0  0  0  0  0  0
  1  8  2  0  0  0  0
  2  9  1  0  0  0  0
  3  7  2  0  0  0  0
  5 29  1  0  0  0  0
  6 10  1  6  0  0  0
  6 27  1  0  0  0  0
  7  1  1  0  0  0  0
  7  6  1  0  0  0  0
  8  2  1  0  0  0  0
  8 27  1  0  0  0  0
  9 12  2  0  0  0  0
  9 16  1  0  0  0  0
 10 11  1  0  0  0  0
 11 17  2  0  0  0  0
 11 21  1  0  0  0  0
 12 13  1  0  0  0  0
 13 14  2  0  0  0  0
 14 28  1  0  0  0  0
 15 14  1  0  0  0  0
 16 15  2  0  0  0  0
 17 18  1  0  0  0  0
 18 19  2  0  0  0  0
 19 29  1  0  0  0  0
 20 19  1  0  0  0  0
 21 20  2  0  0  0  0
 22 10  2  0  0  0  0
 23 28  2  0  0  0  0
 28 24  2  0  0  0  0
 28  4  1  0  0  0  0
 29 25  2  0  0  0  0
 29 26  2  0  0  0  0
M  END
