results/cdk2///ligands/3QXO.A.X65_668_A.lig
 OpenBabel09152019553D

 24 25  0  0  0  0  0  0  0  0999 V2000
  -38.7540  -45.0470  -10.5640 C   0  0  0  0  0  0  0  0  0  0  0  0
  -40.0530  -44.5950  -10.2440 C   0  0  0  0  0  0  0  0  0  0  0  0
  -41.1440  -44.7590  -11.1660 C   0  0  0  0  0  0  0  0  0  0  0  0
  -40.8770  -45.3920  -12.4170 C   0  0  0  0  0  0  0  0  0  0  0  0
  -39.5720  -45.8660  -12.7930 C   0  0  0  0  0  0  0  0  0  0  0  0
  -38.4650  -45.7080  -11.8370 C   0  0  0  0  0  0  0  0  0  0  0  0
  -37.2300  -46.0690  -12.1980 N   0  0  0  0  0  0  0  0  0  0  0  0
  -42.3760  -44.3420  -10.8790 N   0  0  0  0  0  0  0  0  0  0  0  0
  -43.3850  -44.5050  -11.7450 O   0  0  0  0  0  0  0  0  0  0  0  0
  -42.6350  -43.7980   -9.8170 O   0  0  0  0  0  0  0  0  0  0  0  0
  -39.4030  -46.3680  -14.0720 C   0  0  0  0  0  0  0  0  0  0  0  0
  -40.1720  -45.9790  -15.1230 N   0  0  0  0  0  0  0  0  0  0  0  0
  -38.4390  -47.2660  -14.3260 O   0  0  0  0  0  0  0  0  0  0  0  0
  -35.9950  -45.8590  -11.4580 C   0  0  0  0  0  0  0  0  0  0  0  0
  -35.2720  -48.7320   -8.2810 C   0  0  0  0  0  0  0  0  0  0  0  0
  -35.0070  -47.3510   -8.0850 C   0  0  0  0  0  0  0  0  0  0  0  0
  -35.2460  -46.4300   -9.1250 C   0  0  0  0  0  0  0  0  0  0  0  0
  -35.7540  -46.8760  -10.3740 C   0  0  0  0  0  0  0  0  0  0  0  0
  -36.0250  -48.2780  -10.5780 C   0  0  0  0  0  0  0  0  0  0  0  0
  -35.7840  -49.2020   -9.5260 C   0  0  0  0  0  0  0  0  0  0  0  0
  -34.9650  -49.8500   -6.9810 S   0  0  0  0  0  0  0  0  0  0  0  0
  -33.9300  -51.0350   -7.4150 O   0  0  0  0  0  0  0  0  0  0  0  0
  -34.4180  -49.1700   -5.7680 O   0  0  0  0  0  0  0  0  0  0  0  0
  -36.1790  -50.5960   -6.5250 N   0  0  0  0  0  0  0  0  0  0  0  0
  1  2  1  0  0  0  0
  3  8  1  0  0  0  0
  3  2  2  0  0  0  0
  4  3  1  0  0  0  0
  5  4  2  0  0  0  0
  5  6  1  0  0  0  0
  6  1  2  0  0  0  0
  7  6  1  0  0  0  0
  7 14  1  0  0  0  0
  8 10  2  0  0  0  0
  9  8  2  0  0  0  0
 11  5  1  0  0  0  0
 12 11  1  0  0  0  0
 13 11  2  0  0  0  0
 14 18  1  0  0  0  0
 15 16  1  0  0  0  0
 15 21  1  0  0  0  0
 17 16  2  0  0  0  0
 18 17  1  0  0  0  0
 19 18  2  0  0  0  0
 19 20  1  0  0  0  0
 20 15  2  0  0  0  0
 21 24  1  0  0  0  0
 21 23  2  0  0  0  0
 22 21  2  0  0  0  0
M  END
