results/cdk2///ligands/3QZF.A.X66_299_A.lig
 OpenBabel09152019553D

 16 17  0  0  0  0  0  0  0  0999 V2000
   89.0650  117.3130  -44.7310 N   0  0  0  0  0  4  0  0  0  0  0  0
   90.1100  116.4370  -44.5320 C   0  0  0  0  0  0  0  0  0  0  0  0
   90.1870  115.7430  -43.4500 N   0  0  0  0  0  0  0  0  0  0  0  0
   91.0760  116.3000  -45.4980 N   0  0  0  0  0  0  0  0  0  0  0  0
   91.0190  117.0280  -46.6680 C   0  0  0  0  0  0  0  0  0  0  0  0
   91.9870  116.8810  -47.6450 C   0  0  0  0  0  0  0  0  0  0  0  0
   91.9570  117.6300  -48.9160 C   0  0  0  0  0  0  0  0  0  0  0  0
   90.9380  118.5420  -49.1870 O   0  0  0  0  0  0  0  0  0  0  0  0
   92.9880  117.4120  -49.8900 C   0  0  0  0  0  0  0  0  0  0  0  0
   94.0460  116.4940  -49.6520 C   0  0  0  0  0  0  0  0  0  0  0  0
   94.1120  115.7600  -48.4340 C   0  0  0  0  0  0  0  0  0  0  0  0
   95.0700  114.9700  -48.2740 O   0  0  0  0  0  0  0  0  0  0  0  0
   93.0830  115.9540  -47.4380 C   0  0  0  0  0  0  0  0  0  0  0  0
   89.9660  117.8940  -46.8370 N   0  0  0  0  0  0  0  0  0  0  0  0
   88.9990  118.0470  -45.8980 C   0  0  0  0  0  0  0  0  0  0  0  0
   88.0310  118.8690  -46.1120 N   0  0  0  0  0  0  0  0  0  0  0  0
  1  2  2  0  0  0  0
  2  3  1  0  0  0  0
  4  2  1  0  0  0  0
  5  4  2  0  0  0  0
  6 13  2  0  0  0  0
  6  5  1  0  0  0  0
  7  6  1  0  0  0  0
  8  7  1  0  0  0  0
  9 10  1  0  0  0  0
  9  7  2  0  0  0  0
 10 11  1  0  0  0  0
 11 12  2  0  0  0  0
 11 13  1  0  0  0  0
 14  5  1  0  0  0  0
 14 15  1  0  0  0  0
 15  1  2  0  0  0  0
 16 15  1  0  0  0  0
M  END
