results/cdk2///ligands/3QZG.A.X67_471_A.lig
 OpenBabel09152019553D

 16 17  0  0  1  0  0  0  0  0999 V2000
   63.1750  117.6450  -84.0730 C   0  0  0  0  0  0  0  0  0  0  0  0
   62.1790  118.5330  -84.2670 N   0  0  0  0  0  0  0  0  0  0  0  0
   64.0640  117.4100  -85.0650 N   0  0  0  0  0  4  0  0  0  0  0  0
   65.0950  116.5120  -84.9190 C   0  0  0  0  0  0  0  0  0  0  0  0
   65.9750  116.2840  -85.9580 C   0  0  1  0  0  0  0  0  0  0  0  0
   67.0490  115.3250  -85.7990 C   0  0  0  0  0  0  0  0  0  0  0  0
   67.9600  115.0520  -86.8500 C   0  0  0  0  0  0  0  0  0  0  0  0
   68.9510  114.1430  -86.6700 F   0  0  0  0  0  0  0  0  0  0  0  0
   67.8370  115.7160  -88.0930 C   0  0  0  0  0  0  0  0  0  0  0  0
   66.8050  116.6650  -88.2970 C   0  0  0  0  0  0  0  0  0  0  0  0
   65.8590  116.9760  -87.2540 C   0  0  0  0  0  0  0  0  0  0  0  0
   64.9340  117.8300  -87.4480 O   0  0  0  0  0  0  0  0  0  0  0  0
   65.2060  115.8440  -83.7140 N   0  0  0  0  0  0  0  0  0  0  0  0
   64.3050  116.0760  -82.7000 C   0  0  0  0  0  0  0  0  0  0  0  0
   64.4130  115.4500  -81.5750 N   0  0  0  0  0  0  0  0  0  0  0  0
   63.2920  116.9780  -82.8890 N   0  0  0  0  0  0  0  0  0  0  0  0
  1 16  1  0  0  0  0
  2  1  1  0  0  0  0
  3  4  2  0  0  0  0
  3  1  2  0  0  0  0
  4 13  1  0  0  0  0
  5  6  1  0  0  0  0
  5  4  1  6  0  0  0
  7  8  1  0  0  0  0
  7  6  2  0  0  0  0
  9  7  1  0  0  0  0
 10  9  2  0  0  0  0
 10 11  1  0  0  0  0
 11  5  1  0  0  0  0
 12 11  2  0  0  0  0
 13 14  2  0  0  0  0
 14 15  1  0  0  0  0
 16 14  1  0  0  0  0
M  END
