results/cdk2///ligands/3QZH.A.X69_839_A.lig
 OpenBabel09152019553D

 22 23  0  0  0  0  0  0  0  0999 V2000
  -37.4470  -46.2120   24.1030 N   0  0  0  0  0  0  0  0  0  0  0  0
  -40.0580  -45.8230   20.9460 N   0  0  0  0  0  0  0  0  0  0  0  0
  -35.7800  -49.3380   26.5980 N   0  0  0  0  0  0  0  0  0  0  0  0
  -42.5640  -44.3960   24.9710 N   0  0  0  0  0  0  0  0  0  0  0  0
  -40.9710  -45.3320   23.5220 C   0  0  0  0  0  0  0  0  0  0  0  0
  -39.6460  -45.8090   23.2740 C   0  0  0  0  0  0  0  0  0  0  0  0
  -38.6640  -45.7750   24.3260 C   0  0  0  0  0  0  0  0  0  0  0  0
  -39.0560  -45.2550   25.6120 C   0  0  0  0  0  0  0  0  0  0  0  0
  -40.3830  -44.7820   25.8530 C   0  0  0  0  0  0  0  0  0  0  0  0
  -41.3570  -44.8180   24.7950 C   0  0  0  0  0  0  0  0  0  0  0  0
  -39.3540  -46.2850   22.0240 C   0  0  0  0  0  0  0  0  0  0  0  0
  -36.2670  -45.9020   24.9570 C   0  0  0  0  0  0  0  0  0  0  0  0
  -36.0590  -46.9750   26.0070 C   0  0  0  0  0  0  0  0  0  0  0  0
  -35.9640  -48.3390   25.6650 C   0  0  0  0  0  0  0  0  0  0  0  0
  -35.6860  -48.9740   27.9230 C   0  0  0  0  0  0  0  0  0  0  0  0
  -35.7690  -47.6440   28.3630 C   0  0  0  0  0  0  0  0  0  0  0  0
  -35.9580  -46.6370   27.3820 C   0  0  0  0  0  0  0  0  0  0  0  0
  -40.9510  -45.1420   28.1860 C   0  0  0  0  0  0  0  0  0  0  0  0
  -38.4780  -47.1030   21.8540 O   0  0  0  0  0  0  0  0  0  0  0  0
  -42.8440  -43.5450   25.9250 O   0  0  0  0  0  0  0  0  0  0  0  0
  -43.5470  -44.7960   24.1780 O   0  0  0  0  0  0  0  0  0  0  0  0
  -40.7150  -44.2930   27.0880 O   0  0  0  0  0  0  0  0  0  0  0  0
  1  7  1  0  0  0  0
  1 12  1  0  0  0  0
  2 11  1  0  0  0  0
  3 15  1  0  0  0  0
  4 20  2  0  0  0  0
  5 10  1  0  0  0  0
  6  5  2  0  0  0  0
  6  7  1  0  0  0  0
  7  8  2  0  0  0  0
  8  9  1  0  0  0  0
  9 22  1  0  0  0  0
 10  4  1  0  0  0  0
 10  9  2  0  0  0  0
 11  6  1  0  0  0  0
 12 13  1  0  0  0  0
 13 17  2  0  0  0  0
 14 13  1  0  0  0  0
 14  3  2  0  0  0  0
 15 16  2  0  0  0  0
 17 16  1  0  0  0  0
 19 11  2  0  0  0  0
 21  4  2  0  0  0  0
 22 18  1  0  0  0  0
M  END
