results/cdk2///ligands/3R1Q.A.X75_616_A.lig
 OpenBabel09152019543D

 22 23  0  0  0  0  0  0  0  0999 V2000
  -64.5540  -46.3350  -12.2390 N   0  0  0  0  0  0  0  0  0  0  0  0
  -67.0530  -45.5950  -15.4320 N   0  0  0  0  0  0  0  0  0  0  0  0
  -62.6370  -49.4020   -9.9790 N   0  0  0  0  0  0  0  0  0  0  0  0
  -69.5060  -44.2510  -11.2640 N   0  0  0  0  0  0  0  0  0  0  0  0
  -67.9800  -45.1700  -12.7920 C   0  0  0  0  0  0  0  0  0  0  0  0
  -66.6830  -45.7250  -13.0740 C   0  0  0  0  0  0  0  0  0  0  0  0
  -65.7300  -45.8500  -12.0080 C   0  0  0  0  0  0  0  0  0  0  0  0
  -66.0960  -45.4390  -10.6900 C   0  0  0  0  0  0  0  0  0  0  0  0
  -67.3720  -44.9030  -10.4080 C   0  0  0  0  0  0  0  0  0  0  0  0
  -68.3380  -44.7500  -11.4700 C   0  0  0  0  0  0  0  0  0  0  0  0
  -66.3820  -46.1300  -14.3660 C   0  0  0  0  0  0  0  0  0  0  0  0
  -63.3440  -45.9440  -11.4720 C   0  0  0  0  0  0  0  0  0  0  0  0
  -63.0040  -47.0290  -10.4770 C   0  0  0  0  0  0  0  0  0  0  0  0
  -62.9410  -48.3840  -10.8590 C   0  0  0  0  0  0  0  0  0  0  0  0
  -62.3860  -49.0590   -8.6730 C   0  0  0  0  0  0  0  0  0  0  0  0
  -62.4260  -47.7370   -8.1960 C   0  0  0  0  0  0  0  0  0  0  0  0
  -62.7420  -46.7130   -9.1220 C   0  0  0  0  0  0  0  0  0  0  0  0
  -65.5320  -46.9860  -14.5670 O   0  0  0  0  0  0  0  0  0  0  0  0
  -70.5690  -44.7600  -11.8370 O   0  0  0  0  0  0  0  0  0  0  0  0
  -69.6540  -43.1800  -10.5120 O   0  0  0  0  0  0  0  0  0  0  0  0
  -67.7060  -44.4540   -8.7790 Cl  0  0  0  0  0  0  0  0  0  0  0  0
  -62.0050  -50.3150   -7.5610 Cl  0  0  0  0  0  0  0  0  0  0  0  0
  1  7  1  0  0  0  0
  1 12  1  0  0  0  0
  2 11  1  0  0  0  0
  3 15  1  0  0  0  0
  4 20  2  0  0  0  0
  5 10  1  0  0  0  0
  6  5  2  0  0  0  0
  6  7  1  0  0  0  0
  7  8  2  0  0  0  0
  8  9  1  0  0  0  0
  9 21  1  0  0  0  0
 10  4  1  0  0  0  0
 10  9  2  0  0  0  0
 11  6  1  0  0  0  0
 12 13  1  0  0  0  0
 13 17  2  0  0  0  0
 14 13  1  0  0  0  0
 14  3  2  0  0  0  0
 15 16  2  0  0  0  0
 15 22  1  0  0  0  0
 17 16  1  0  0  0  0
 18 11  2  0  0  0  0
 19  4  2  0  0  0  0
M  END
