results/cdk2///ligands/3R1Y.A.X76_488_A.lig
 OpenBabel09152019553D

 17 18  0  0  0  0  0  0  0  0999 V2000
  118.7700  -26.1040  -48.8330 N   0  0  0  0  0  0  0  0  0  0  0  0
  121.7440  -26.3150  -51.6560 N   0  0  0  0  0  0  0  0  0  0  0  0
  117.2010  -22.9880  -46.2740 N   0  0  0  0  0  0  0  0  0  0  0  0
  122.3510  -26.9040  -48.9340 C   0  0  0  0  0  0  0  0  0  0  0  0
  121.0700  -26.4200  -49.3580 C   0  0  0  0  0  0  0  0  0  0  0  0
  119.9410  -26.5410  -48.4600 C   0  0  0  0  0  0  0  0  0  0  0  0
  120.1420  -27.1510  -47.1630 C   0  0  0  0  0  0  0  0  0  0  0  0
  121.4210  -27.6220  -46.7680 C   0  0  0  0  0  0  0  0  0  0  0  0
  122.5240  -27.4980  -47.6520 C   0  0  0  0  0  0  0  0  0  0  0  0
  120.9520  -25.8550  -50.6260 C   0  0  0  0  0  0  0  0  0  0  0  0
  117.4970  -26.3570  -48.0910 C   0  0  0  0  0  0  0  0  0  0  0  0
  117.2770  -25.3320  -47.0040 C   0  0  0  0  0  0  0  0  0  0  0  0
  117.3920  -23.9450  -47.2490 C   0  0  0  0  0  0  0  0  0  0  0  0
  116.8810  -23.4200  -45.0070 C   0  0  0  0  0  0  0  0  0  0  0  0
  116.7440  -24.7820  -44.6660 C   0  0  0  0  0  0  0  0  0  0  0  0
  116.9480  -25.7440  -45.6890 C   0  0  0  0  0  0  0  0  0  0  0  0
  120.1550  -24.9700  -50.8560 O   0  0  0  0  0  0  0  0  0  0  0  0
  1  6  1  0  0  0  0
  1 11  1  0  0  0  0
  2 10  1  0  0  0  0
  3 14  1  0  0  0  0
  4  9  1  0  0  0  0
  5  4  2  0  0  0  0
  5  6  1  0  0  0  0
  6  7  2  0  0  0  0
  7  8  1  0  0  0  0
  9  8  2  0  0  0  0
 10  5  1  0  0  0  0
 11 12  1  0  0  0  0
 12 16  2  0  0  0  0
 13 12  1  0  0  0  0
 13  3  2  0  0  0  0
 14 15  2  0  0  0  0
 16 15  1  0  0  0  0
 17 10  2  0  0  0  0
M  END
