results/cdk2///ligands/3R28.A.XA0_782_A.lig
 OpenBabel09152019553D

 24 25  0  0  0  0  0  0  0  0999 V2000
  -64.3640  -10.4170   24.1010 N   0  0  0  0  0  0  0  0  0  0  0  0
  -66.8460   -9.6810   20.8710 N   0  0  0  0  0  0  0  0  0  0  0  0
  -69.3780   -8.4230   25.0170 N   0  0  0  0  0  0  0  0  0  0  0  0
  -67.8110   -9.3060   23.5070 C   0  0  0  0  0  0  0  0  0  0  0  0
  -66.5060   -9.8340   23.2370 C   0  0  0  0  0  0  0  0  0  0  0  0
  -65.5570   -9.9480   24.3160 C   0  0  0  0  0  0  0  0  0  0  0  0
  -65.9470   -9.5470   25.6270 C   0  0  0  0  0  0  0  0  0  0  0  0
  -67.2280   -9.0350   25.8990 C   0  0  0  0  0  0  0  0  0  0  0  0
  -68.1920   -8.8970   24.8290 C   0  0  0  0  0  0  0  0  0  0  0  0
  -66.1880  -10.2250   21.9470 C   0  0  0  0  0  0  0  0  0  0  0  0
  -63.1700  -10.0440   24.9160 C   0  0  0  0  0  0  0  0  0  0  0  0
  -62.9440  -11.0720   26.0040 C   0  0  0  0  0  0  0  0  0  0  0  0
  -62.6600  -10.6490   27.3330 C   0  0  0  0  0  0  0  0  0  0  0  0
  -62.4550  -11.6130   28.3600 C   0  0  0  0  0  0  0  0  0  0  0  0
  -62.5350  -13.0000   28.0580 C   0  0  0  0  0  0  0  0  0  0  0  0
  -62.8230  -13.4200   26.7310 C   0  0  0  0  0  0  0  0  0  0  0  0
  -63.0260  -12.4590   25.7060 C   0  0  0  0  0  0  0  0  0  0  0  0
  -65.3380  -11.0730   21.7540 O   0  0  0  0  0  0  0  0  0  0  0  0
  -70.4000   -8.8620   24.3070 O   0  0  0  0  0  0  0  0  0  0  0  0
  -69.5940   -7.4530   25.8900 O   0  0  0  0  0  0  0  0  0  0  0  0
  -67.5690   -8.5990   27.5350 Cl  0  0  0  0  0  0  0  0  0  0  0  0
  -62.9050  -14.7000   26.4510 F   0  0  0  0  0  0  0  0  0  0  0  0
  -62.1950  -11.2170   29.5930 F   0  0  0  0  0  0  0  0  0  0  0  0
  -62.3440  -13.9050   29.0130 F   0  0  0  0  0  0  0  0  0  0  0  0
  1  6  1  0  0  0  0
  1 11  1  0  0  0  0
  2 10  1  0  0  0  0
  3 20  2  0  0  0  0
  4  9  1  0  0  0  0
  5  4  2  0  0  0  0
  5  6  1  0  0  0  0
  6  7  2  0  0  0  0
  7  8  1  0  0  0  0
  8 21  1  0  0  0  0
  9  3  1  0  0  0  0
  9  8  2  0  0  0  0
 10  5  1  0  0  0  0
 11 12  1  0  0  0  0
 12 13  1  0  0  0  0
 13 14  2  0  0  0  0
 14 23  1  0  0  0  0
 15 14  1  0  0  0  0
 15 24  1  0  0  0  0
 16 15  2  0  0  0  0
 17 12  2  0  0  0  0
 17 16  1  0  0  0  0
 18 10  2  0  0  0  0
 19  3  2  0  0  0  0
 22 16  1  0  0  0  0
M  END
