results/cdk2///ligands/3R71.A.X86_800_A.lig
 OpenBabel09152019553D

 26 27  0  0  0  0  0  0  0  0999 V2000
   63.8720   46.2490  -12.0820 N   0  0  0  0  0  0  0  0  0  0  0  0
   67.1370   46.2470  -14.6060 N   0  0  0  0  0  0  0  0  0  0  0  0
   62.6390   49.3940   -9.3040 N   0  0  0  0  0  0  0  0  0  0  0  0
   66.4190   44.0230   -8.7130 N   0  0  0  0  0  0  0  0  0  0  0  0
   68.6770   44.3680  -10.2290 N   0  0  0  0  0  0  0  0  0  0  0  0
   67.4470   45.4530  -11.9220 C   0  0  0  0  0  0  0  0  0  0  0  0
   66.2050   45.9520  -12.4310 C   0  0  0  0  0  0  0  0  0  0  0  0
   65.0200   45.7940  -11.6420 C   0  0  0  0  0  0  0  0  0  0  0  0
   65.1180   45.1230  -10.3640 C   0  0  0  0  0  0  0  0  0  0  0  0
   66.3530   44.6250   -9.8660 C   0  0  0  0  0  0  0  0  0  0  0  0
   67.5350   44.7940  -10.6460 C   0  0  0  0  0  0  0  0  0  0  0  0
   66.1850   46.5670  -13.6730 C   0  0  0  0  0  0  0  0  0  0  0  0
   62.5670   46.1400  -11.3430 C   0  0  0  0  0  0  0  0  0  0  0  0
   62.4760   47.1180  -10.1800 C   0  0  0  0  0  0  0  0  0  0  0  0
   62.7140   48.5030  -10.3430 C   0  0  0  0  0  0  0  0  0  0  0  0
   62.3180   48.9100   -8.0640 C   0  0  0  0  0  0  0  0  0  0  0  0
   62.0650   47.5520   -7.8050 C   0  0  0  0  0  0  0  0  0  0  0  0
   62.1500   46.6560   -8.8850 C   0  0  0  0  0  0  0  0  0  0  0  0
   65.2490   43.8610   -7.8040 C   0  0  0  0  0  0  0  0  0  0  0  0
   65.6100   42.8740   -6.6970 C   0  0  0  0  0  0  0  0  0  0  0  0
   66.4760   43.5820   -5.6610 C   0  0  0  0  0  0  0  0  0  0  0  0
   68.6320   44.6800   -5.7820 C   0  0  0  0  0  0  0  0  0  0  0  0
   65.3170   47.3730  -13.9760 O   0  0  0  0  0  0  0  0  0  0  0  0
   68.8160   43.8060   -9.0580 O   0  0  0  0  0  0  0  0  0  0  0  0
   69.7560   44.5240  -10.9670 O   0  0  0  0  0  0  0  0  0  0  0  0
   67.7970   43.6110   -6.1170 O   0  0  0  0  0  0  0  0  0  0  0  0
  1  8  1  0  0  0  0
  1 13  1  0  0  0  0
  2 12  1  0  0  0  0
  3 16  1  0  0  0  0
  4 19  1  0  0  0  0
  5 24  2  0  0  0  0
  6 11  1  0  0  0  0
  7  6  2  0  0  0  0
  7  8  1  0  0  0  0
  8  9  2  0  0  0  0
  9 10  1  0  0  0  0
 10  4  1  0  0  0  0
 11  5  1  0  0  0  0
 11 10  2  0  0  0  0
 12  7  1  0  0  0  0
 13 14  1  0  0  0  0
 14 18  2  0  0  0  0
 15 14  1  0  0  0  0
 15  3  2  0  0  0  0
 16 17  2  0  0  0  0
 18 17  1  0  0  0  0
 19 20  1  0  0  0  0
 20 21  1  0  0  0  0
 23 12  2  0  0  0  0
 25  5  2  0  0  0  0
 26 22  1  0  0  0  0
 26 21  1  0  0  0  0
M  END
