results/cdk2///ligands/3R7I.A.X9I_505_A.lig
 OpenBabel09152019543D

 23 24  0  0  0  0  0  0  0  0999 V2000
   94.8780   80.5520  -47.6560 C   0  0  0  0  0  0  0  0  0  0  0  0
   96.1730   80.1160  -47.3920 N   0  0  0  0  0  0  0  0  0  0  0  0
   96.4830   79.5410  -46.2230 O   0  0  0  0  0  0  0  0  0  0  0  0
   94.5640   81.1620  -48.9120 C   0  0  0  0  0  0  0  0  0  0  0  0
   93.7320   81.7890  -51.6320 N   0  0  0  0  0  0  0  0  0  0  0  0
   97.1470   80.2600  -48.3020 O   0  0  0  0  0  0  0  0  0  0  0  0
   93.2420   81.6130  -49.2140 C   0  0  0  0  0  0  0  0  0  0  0  0
   90.9340   81.8800  -48.5380 N   0  0  0  0  0  0  0  0  0  0  0  0
   92.0890   83.1530  -50.7040 O   0  0  0  0  0  0  0  0  0  0  0  0
   92.1670   81.4600  -48.2370 C   0  0  0  0  0  0  0  0  0  0  0  0
   92.5170   80.8360  -46.9590 C   0  0  0  0  0  0  0  0  0  0  0  0
   93.8400   80.3990  -46.6890 C   0  0  0  0  0  0  0  0  0  0  0  0
   93.0270   82.2130  -50.5560 C   0  0  0  0  0  0  0  0  0  0  0  0
   89.7200   81.7520  -47.7270 C   0  0  0  0  0  0  0  0  0  0  0  0
   89.5870   82.7530  -46.6180 C   0  0  0  0  0  0  0  0  0  0  0  0
   89.4420   82.2920  -45.2820 C   0  0  0  0  0  0  0  0  0  0  0  0
   89.3030   83.2150  -44.2170 C   0  0  0  0  0  0  0  0  0  0  0  0
   89.3030   84.6290  -44.4620 C   0  0  0  0  0  0  0  0  0  0  0  0
   89.4520   85.0920  -45.8250 C   0  0  0  0  0  0  0  0  0  0  0  0
   89.5920   84.1580  -46.8880 C   0  0  0  0  0  0  0  0  0  0  0  0
   89.1480   85.5290  -43.3080 C   0  0  0  0  0  0  0  0  0  0  0  0
   89.0240   85.0410  -42.1530 O   0  0  0  0  0  0  0  0  0  0  0  0
   89.1450   86.7580  -43.5240 O   0  0  0  0  0  0  0  0  0  0  0  0
  1  2  1  0  0  0  0
  1 12  1  0  0  0  0
  2  3  2  0  0  0  0
  4  1  2  0  0  0  0
  5 13  1  0  0  0  0
  6  2  2  0  0  0  0
  7  4  1  0  0  0  0
  7 10  2  0  0  0  0
  8 10  1  0  0  0  0
  8 14  1  0  0  0  0
  9 13  2  0  0  0  0
 10 11  1  0  0  0  0
 11 12  2  0  0  0  0
 13  7  1  0  0  0  0
 14 15  1  0  0  0  0
 15 16  1  0  0  0  0
 16 17  2  0  0  0  0
 18 17  1  0  0  0  0
 18 21  1  0  0  0  0
 19 18  2  0  0  0  0
 20 15  2  0  0  0  0
 20 19  1  0  0  0  0
 21 22  1  0  0  0  0
 23 21  2  0  0  0  0
M  END
