results/cdk2///ligands/3R7U.A.X96_523_A.lig
 OpenBabel09152019553D

 22 23  0  0  0  0  0  0  0  0999 V2000
   94.7070   80.5750  -47.1130 C   0  0  0  0  0  0  0  0  0  0  0  0
   95.9710   80.1460  -46.7200 N   0  0  0  0  0  0  0  0  0  0  0  0
   96.1770   79.6330  -45.5000 O   0  0  0  0  0  0  0  0  0  0  0  0
   94.4950   81.1220  -48.4130 C   0  0  0  0  0  0  0  0  0  0  0  0
   93.9150   81.6570  -51.2160 N   0  0  0  0  0  0  0  0  0  0  0  0
   97.0150   80.2310  -47.5480 O   0  0  0  0  0  0  0  0  0  0  0  0
   93.2020   81.5670  -48.8410 C   0  0  0  0  0  0  0  0  0  0  0  0
   90.8530   81.8660  -48.3380 N   0  0  0  0  0  0  0  0  0  0  0  0
   92.2140   83.0530  -50.5130 O   0  0  0  0  0  0  0  0  0  0  0  0
   92.0580   81.4630  -47.9420 C   0  0  0  0  0  0  0  0  0  0  0  0
   87.3540   86.2530  -43.4540 N   0  0  0  0  0  0  0  0  0  0  0  0
   92.3090   80.9020  -46.6200 C   0  0  0  0  0  0  0  0  0  0  0  0
   93.5980   80.4770  -46.2300 C   0  0  0  0  0  0  0  0  0  0  0  0
   93.1120   82.1120  -50.2310 C   0  0  0  0  0  0  0  0  0  0  0  0
   89.5730   81.7880  -47.5870 C   0  0  0  0  0  0  0  0  0  0  0  0
   89.3730   82.8990  -46.5850 C   0  0  0  0  0  0  0  0  0  0  0  0
   88.8780   82.5870  -45.2800 C   0  0  0  0  0  0  0  0  0  0  0  0
   88.6820   83.6080  -44.3180 C   0  0  0  0  0  0  0  0  0  0  0  0
   88.9750   84.9770  -44.6330 C   0  0  0  0  0  0  0  0  0  0  0  0
   89.4710   85.2850  -45.9500 C   0  0  0  0  0  0  0  0  0  0  0  0
   89.6660   84.2570  -46.9110 C   0  0  0  0  0  0  0  0  0  0  0  0
   88.7690   85.9360  -43.6560 C   0  0  0  0  0  0  0  0  0  0  0  0
  1  2  1  0  0  0  0
  1 13  1  0  0  0  0
  2  3  2  0  0  0  0
  4  1  2  0  0  0  0
  5 14  1  0  0  0  0
  6  2  2  0  0  0  0
  7  4  1  0  0  0  0
  7 10  2  0  0  0  0
  8 10  1  0  0  0  0
  8 15  1  0  0  0  0
  9 14  2  0  0  0  0
 10 12  1  0  0  0  0
 12 13  2  0  0  0  0
 14  7  1  0  0  0  0
 15 16  1  0  0  0  0
 16 17  1  0  0  0  0
 17 18  2  0  0  0  0
 19 18  1  0  0  0  0
 19 22  1  0  0  0  0
 20 19  2  0  0  0  0
 21 16  2  0  0  0  0
 21 20  1  0  0  0  0
 22 11  1  0  0  0  0
M  END
