results/cdk2///ligands/3R7V.A.Z02_490_A.lig
 OpenBabel09152019553D

 20 21  0  0  0  0  0  0  0  0999 V2000
  -94.9740  -44.4010  -82.0990 N   0  0  0  0  0  0  0  0  0  0  0  0
  -93.0660  -45.8490  -86.5060 N   0  0  0  0  0  0  0  0  0  0  0  0
  -90.0750  -46.3300  -83.6460 N   0  0  0  0  0  0  0  0  0  0  0  0
  -87.6670  -47.1130  -80.8680 N   0  0  0  0  0  0  0  0  0  0  0  0
  -93.6200  -45.3620  -83.7850 C   0  0  0  0  0  0  0  0  0  0  0  0
  -92.3520  -45.8700  -84.2150 C   0  0  0  0  0  0  0  0  0  0  0  0
  -91.2400  -45.8710  -83.2810 C   0  0  0  0  0  0  0  0  0  0  0  0
  -91.4530  -45.3570  -81.9480 C   0  0  0  0  0  0  0  0  0  0  0  0
  -92.7230  -44.8590  -81.5500 C   0  0  0  0  0  0  0  0  0  0  0  0
  -93.8180  -44.8560  -82.4620 C   0  0  0  0  0  0  0  0  0  0  0  0
  -92.2350  -46.3390  -85.5220 C   0  0  0  0  0  0  0  0  0  0  0  0
  -88.8070  -46.1390  -82.8570 C   0  0  0  0  0  0  0  0  0  0  0  0
  -88.5040  -47.3250  -81.9470 C   0  0  0  0  0  0  0  0  0  0  0  0
  -87.3930  -48.1840  -80.0440 C   0  0  0  0  0  0  0  0  0  0  0  0
  -87.9260  -49.4780  -80.2490 C   0  0  0  0  0  0  0  0  0  0  0  0
  -88.7790  -49.6670  -81.3590 C   0  0  0  0  0  0  0  0  0  0  0  0
  -89.0790  -48.5870  -82.2270 C   0  0  0  0  0  0  0  0  0  0  0  0
  -91.4080  -47.1640  -85.8270 O   0  0  0  0  0  0  0  0  0  0  0  0
  -95.9550  -44.2190  -82.9820 O   0  0  0  0  0  0  0  0  0  0  0  0
  -95.2050  -44.1080  -80.8360 O   0  0  0  0  0  0  0  0  0  0  0  0
  1 20  2  0  0  0  0
  2 11  1  0  0  0  0
  3  7  1  0  0  0  0
  3 12  1  0  0  0  0
  4 14  1  0  0  0  0
  5 10  1  0  0  0  0
  6  5  2  0  0  0  0
  6  7  1  0  0  0  0
  7  8  2  0  0  0  0
  8  9  1  0  0  0  0
 10  1  1  0  0  0  0
 10  9  2  0  0  0  0
 11  6  1  0  0  0  0
 12 13  1  0  0  0  0
 13  4  2  0  0  0  0
 15 14  2  0  0  0  0
 16 15  1  0  0  0  0
 17 13  1  0  0  0  0
 17 16  2  0  0  0  0
 18 11  2  0  0  0  0
 19  1  2  0  0  0  0
M  END
