results/cdk2///ligands/3R7Y.A.Z04_484_A.lig
 OpenBabel09152019553D

 27 29  0  0  0  0  0  0  0  0999 V2000
  117.8460   46.5360  -47.9180 N   0  0  0  0  0  0  0  0  0  0  0  0
  120.9910   46.3070  -50.6090 N   0  0  0  0  0  0  0  0  0  0  0  0
  116.3160   49.3660  -45.0830 N   0  0  0  0  0  0  0  0  0  0  0  0
  115.8450   47.4260  -43.7120 N   0  0  0  0  0  0  0  0  0  0  0  0
  120.3060   44.3060  -44.5470 N   0  0  0  0  0  0  0  0  0  0  0  0
  115.8770   49.5240  -42.8820 N   0  0  0  0  0  0  0  0  0  0  0  0
  122.6650   44.3940  -46.3330 N   0  0  0  0  0  0  0  0  0  0  0  0
  121.3610   45.5210  -47.9200 C   0  0  0  0  0  0  0  0  0  0  0  0
  120.1380   46.0880  -48.3710 C   0  0  0  0  0  0  0  0  0  0  0  0
  118.9820   46.0290  -47.5160 C   0  0  0  0  0  0  0  0  0  0  0  0
  119.1040   45.4100  -46.2260 C   0  0  0  0  0  0  0  0  0  0  0  0
  120.3210   44.8410  -45.7520 C   0  0  0  0  0  0  0  0  0  0  0  0
  121.4990   44.8900  -46.6350 C   0  0  0  0  0  0  0  0  0  0  0  0
  120.0960   46.6790  -49.6390 C   0  0  0  0  0  0  0  0  0  0  0  0
  116.5110   46.2550  -47.2950 C   0  0  0  0  0  0  0  0  0  0  0  0
  116.3190   47.1480  -46.0890 C   0  0  0  0  0  0  0  0  0  0  0  0
  116.4640   48.5390  -46.1540 C   0  0  0  0  0  0  0  0  0  0  0  0
  116.0130   48.7680  -43.9000 C   0  0  0  0  0  0  0  0  0  0  0  0
  116.0050   46.6420  -44.8220 C   0  0  0  0  0  0  0  0  0  0  0  0
  119.2720   43.2640  -44.2200 C   0  0  0  0  0  0  0  0  0  0  0  0
  119.0680   43.0780  -42.7090 C   0  0  0  0  0  0  0  0  0  0  0  0
  121.2660   44.7920  -43.4860 C   0  0  0  0  0  0  0  0  0  0  0  0
  120.8130   44.4310  -42.0660 C   0  0  0  0  0  0  0  0  0  0  0  0
  119.2790   47.5370  -49.9050 O   0  0  0  0  0  0  0  0  0  0  0  0
  120.3430   43.1000  -42.0880 O   0  0  0  0  0  0  0  0  0  0  0  0
  122.8170   43.5200  -45.3760 O   0  0  0  0  0  0  0  0  0  0  0  0
  123.7440   44.7320  -47.0330 O   0  0  0  0  0  0  0  0  0  0  0  0
  1 10  1  0  0  0  0
  1 15  1  0  0  0  0
  2 14  1  0  0  0  0
  3 18  2  0  0  0  0
  5 20  1  0  0  0  0
  5 22  1  0  0  0  0
  7 26  2  0  0  0  0
  8 13  1  0  0  0  0
  9  8  2  0  0  0  0
  9 10  1  0  0  0  0
 10 11  2  0  0  0  0
 11 12  1  0  0  0  0
 12  5  1  0  0  0  0
 13  7  1  0  0  0  0
 13 12  2  0  0  0  0
 14  9  1  0  0  0  0
 15 16  1  0  0  0  0
 16 19  1  0  0  0  0
 17 16  2  0  0  0  0
 17  3  1  0  0  0  0
 18  4  1  0  0  0  0
 18  6  1  0  0  0  0
 19  4  2  0  0  0  0
 20 21  1  0  0  0  0
 21 25  1  0  0  0  0
 22 23  1  0  0  0  0
 24 14  2  0  0  0  0
 25 23  1  0  0  0  0
 27  7  2  0  0  0  0
M  END
