results/cdk2///ligands/3R83.A.Z14_589_A.lig
 OpenBabel09152019553D

 28 30  0  0  0  0  0  0  0  0999 V2000
  -78.2500  102.9630    7.3090 N   0  0  0  0  0  0  0  0  0  0  0  0
  -81.3430  105.7040    7.5340 N   0  0  0  0  0  0  0  0  0  0  0  0
  -76.2700   98.7360    6.3040 N   0  0  0  0  0  0  0  0  0  0  0  0
  -76.6850  100.1690    4.3930 N   0  0  0  0  0  0  0  0  0  0  0  0
  -80.8410   99.6130    9.5140 N   0  0  0  0  0  0  0  0  0  0  0  0
  -81.3590   95.8790   11.5400 N   0  0  0  0  0  0  0  0  0  0  0  0
  -76.2590   97.9640    4.1870 N   0  0  0  0  0  0  0  0  0  0  0  0
  -83.1490  101.4630    9.3950 N   0  0  0  0  0  0  0  0  0  0  0  0
  -81.7990  103.0160    8.2860 C   0  0  0  0  0  0  0  0  0  0  0  0
  -80.5520  103.4460    7.7310 C   0  0  0  0  0  0  0  0  0  0  0  0
  -79.4090  102.5750    7.8110 C   0  0  0  0  0  0  0  0  0  0  0  0
  -79.5690  101.2840    8.4340 C   0  0  0  0  0  0  0  0  0  0  0  0
  -80.8130  100.8340    8.9870 C   0  0  0  0  0  0  0  0  0  0  0  0
  -81.9700  101.7410    8.9190 C   0  0  0  0  0  0  0  0  0  0  0  0
  -80.4880  104.7060    7.1300 C   0  0  0  0  0  0  0  0  0  0  0  0
  -76.9230  102.2970    7.5790 C   0  0  0  0  0  0  0  0  0  0  0  0
  -76.7300  101.1180    6.6440 C   0  0  0  0  0  0  0  0  0  0  0  0
  -76.4380   99.8310    7.1170 C   0  0  0  0  0  0  0  0  0  0  0  0
  -76.4050   98.9610    4.9650 C   0  0  0  0  0  0  0  0  0  0  0  0
  -76.8420  101.2270    5.2540 C   0  0  0  0  0  0  0  0  0  0  0  0
  -81.8630   98.6290    8.9880 C   0  0  0  0  0  0  0  0  0  0  0  0
  -82.2330   97.5270    9.9910 C   0  0  0  0  0  0  0  0  0  0  0  0
  -79.7620   99.1510   10.4520 C   0  0  0  0  0  0  0  0  0  0  0  0
  -80.1900   98.0000   11.3740 C   0  0  0  0  0  0  0  0  0  0  0  0
  -80.9730   96.9280   10.6100 C   0  0  0  0  0  0  0  0  0  0  0  0
  -79.6950  104.9480    6.2270 O   0  0  0  0  0  0  0  0  0  0  0  0
  -83.3080  100.6740   10.4230 O   0  0  0  0  0  0  0  0  0  0  0  0
  -84.2210  102.0440    8.8980 O   0  0  0  0  0  0  0  0  0  0  0  0
  1 16  1  0  0  0  0
  1 11  1  0  0  0  0
  3 18  1  0  0  0  0
  4 19  1  0  0  0  0
  4 20  2  0  0  0  0
  5 23  1  0  0  0  0
  7 19  1  0  0  0  0
  8 27  2  0  0  0  0
  9 14  1  0  0  0  0
 10 11  1  0  0  0  0
 10  9  2  0  0  0  0
 11 12  2  0  0  0  0
 12 13  1  0  0  0  0
 13  5  1  0  0  0  0
 14 13  2  0  0  0  0
 14  8  1  0  0  0  0
 15  2  1  0  0  0  0
 15 10  1  0  0  0  0
 17 18  2  0  0  0  0
 17 16  1  0  0  0  0
 19  3  2  0  0  0  0
 20 17  1  0  0  0  0
 21  5  1  0  0  0  0
 21 22  1  0  0  0  0
 22 25  1  0  0  0  0
 23 24  1  0  0  0  0
 25 24  1  0  0  0  0
 25  6  1  0  0  0  0
 26 15  2  0  0  0  0
 28  8  2  0  0  0  0
M  END
