results/cdk2///ligands/3R8L.A.Z30_423_A.lig
 OpenBabel09152019553D

 17 18  0  0  1  0  0  0  0  0999 V2000
  104.1190  138.3740  100.0540 N   0  0  0  0  0  0  0  0  0  0  0  0
  105.1190  139.1200   99.5810 N   0  0  0  0  0  0  0  0  0  0  0  0
  105.9240  138.3490   98.8320 C   0  0  0  0  0  0  0  0  0  0  0  0
  107.1700  138.7970   98.1120 C   0  0  0  0  0  0  0  0  0  0  0  0
  107.9260  137.6440   97.3760 C   0  0  0  0  0  0  0  0  0  0  0  0
  106.9940  136.4680   96.8500 C   0  0  1  0  0  0  0  0  0  0  0  0
  107.7470  135.2810   96.0690 C   0  0  0  0  0  0  0  0  0  0  0  0
  107.2460  135.2820   94.6140 C   0  0  0  0  0  0  0  0  0  0  0  0
  107.4780  133.8550   96.6370 C   0  0  0  0  0  0  0  0  0  0  0  0
  109.2820  135.4970   95.9930 C   0  0  0  0  0  0  0  0  0  0  0  0
  106.1030  135.9340   98.0570 C   0  0  0  0  0  0  0  0  0  0  0  0
  105.4320  137.0640   98.8130 C   0  0  0  0  0  0  0  0  0  0  0  0
  104.2730  137.1040   99.6030 C   0  0  2  0  0  0  0  0  0  0  0  0
  103.3200  135.9940   99.9340 C   0  0  0  0  0  0  0  0  0  0  0  0
  102.2410  136.2440  100.7290 N   0  0  0  0  0  0  0  0  0  0  0  0
  101.5990  135.1620  101.3520 N   0  0  0  0  0  0  0  0  0  0  0  0
  103.5100  134.7510   99.4610 O   0  0  0  0  0  0  0  0  0  0  0  0
  2  1  2  0  0  0  0
  3  2  1  0  0  0  0
  4  3  1  0  0  0  0
  5  4  1  0  0  0  0
  6  7  1  1  0  0  0
  6  5  1  0  0  0  0
  6 11  1  0  0  0  0
  7  9  1  0  0  0  0
  8  7  1  0  0  0  0
 10  7  1  0  0  0  0
 11 12  1  0  0  0  0
 12  3  2  0  0  0  0
 12 13  1  0  0  0  0
 13 14  1  6  0  0  0
 13  1  1  0  0  0  0
 14 15  1  0  0  0  0
 15 16  1  0  0  0  0
 17 14  2  0  0  0  0
M  END
