results/cdk2///ligands/3R8M.A.Z19_486_A.lig
 OpenBabel09152019553D

 13 14  0  0  1  0  0  0  0  0999 V2000
  -91.1160  -82.0030  -86.7050 N   0  0  0  0  0  0  0  0  0  0  0  0
  -92.0290  -81.4860  -87.5680 N   0  0  0  0  0  0  0  0  0  0  0  0
  -92.8880  -80.5680  -86.9900 C   0  0  1  0  0  0  0  0  0  0  0  0
  -92.4540  -80.5070  -85.6100 C   0  0  0  0  0  0  0  0  0  0  0  0
  -91.3440  -81.4390  -85.5360 C   0  0  0  0  0  0  0  0  0  0  0  0
  -90.5820  -81.6950  -84.2680 C   0  0  0  0  0  0  0  0  0  0  0  0
  -89.5930  -82.5850  -84.3700 N   0  0  0  0  0  0  0  0  0  0  0  0
  -88.8180  -82.9230  -83.2680 N   0  0  0  0  0  0  0  0  0  0  0  0
  -90.8660  -81.1200  -83.2110 O   0  0  0  0  0  0  0  0  0  0  0  0
  -93.9780  -79.7840  -87.4850 C   0  0  0  0  0  0  0  0  0  0  0  0
  -94.6670  -78.9040  -86.5900 C   0  0  0  0  0  0  0  0  0  0  0  0
  -94.2640  -78.8210  -85.2190 C   0  0  0  0  0  0  0  0  0  0  0  0
  -93.1680  -79.6140  -84.7320 C   0  0  0  0  0  0  0  0  0  0  0  0
  1  5  1  0  0  0  0
  2  3  1  0  0  0  0
  2  1  2  0  0  0  0
  3 10  1  6  0  0  0
  3  4  1  0  0  0  0
  4  5  2  0  0  0  0
  4 13  1  0  0  0  0
  5  6  1  0  0  0  0
  6  9  2  0  0  0  0
  7  6  1  0  0  0  0
  7  8  1  0  0  0  0
 10 11  2  0  0  0  0
 11 12  1  0  0  0  0
 12 13  2  0  0  0  0
M  END
