results/cdk2///ligands/3R8P.A.Z46_511_A.lig
 OpenBabel09152019543D

 16 17  0  0  1  0  0  0  0  0999 V2000
  -77.8340  137.2920  -65.0170 N   0  0  0  0  0  0  0  0  0  0  0  0
  -78.7020  138.1280  -64.4590 N   0  0  0  0  0  0  0  0  0  0  0  0
  -79.5160  137.4420  -63.6250 C   0  0  0  0  0  0  0  0  0  0  0  0
  -79.1520  136.0910  -63.6490 C   0  0  0  0  0  0  0  0  0  0  0  0
  -78.0750  136.0380  -64.5440 C   0  0  0  0  0  0  0  0  0  0  0  0
  -77.2790  134.8520  -64.9530 C   0  0  0  0  0  0  0  0  0  0  0  0
  -76.2540  134.9970  -65.8410 N   0  0  0  0  0  0  0  0  0  0  0  0
  -75.4540  133.8700  -66.0810 N   0  0  0  0  0  0  0  0  0  0  0  0
  -77.5760  133.6420  -64.4350 O   0  0  0  0  0  0  0  0  0  0  0  0
  -80.5520  137.9960  -62.8560 C   0  0  0  0  0  0  0  0  0  0  0  0
  -81.4880  136.9220  -62.1830 C   0  0  0  0  0  0  0  0  0  0  0  0
  -80.6900  135.6710  -61.6590 C   0  0  2  0  0  0  0  0  0  0  0  0
  -79.8610  135.0130  -62.8230 C   0  0  0  0  0  0  0  0  0  0  0  0
  -81.6660  134.6290  -61.0160 C   0  0  0  0  0  0  0  0  0  0  0  0
  -80.9460  133.5400  -60.2050 C   0  0  0  0  0  0  0  0  0  0  0  0
  -80.4060  134.1140  -58.9090 C   0  0  0  0  0  0  0  0  0  0  0  0
  1  5  2  0  0  0  0
  1  2  1  0  0  0  0
  2  3  1  0  0  0  0
  3 10  1  0  0  0  0
  4  3  2  0  0  0  0
  4 13  1  0  0  0  0
  5  4  1  0  0  0  0
  6  5  1  0  0  0  0
  6  9  2  0  0  0  0
  7  6  1  0  0  0  0
  8  7  1  0  0  0  0
 10 11  1  0  0  0  0
 11 12  1  0  0  0  0
 12 14  1  6  0  0  0
 13 12  1  0  0  0  0
 14 15  1  0  0  0  0
 15 16  1  0  0  0  0
M  END
