results/cdk2///ligands/3R8U.A.Z31_465_A.lig
 OpenBabel09152019553D

 22 24  0  0  1  0  0  0  0  0999 V2000
  -61.9650 -117.9420  -46.7740 C   0  0  0  0  0  0  0  0  0  0  0  0
  -62.2660 -119.3360  -47.1480 C   0  0  0  0  0  0  0  0  0  0  0  0
  -63.5220 -119.7260  -47.5010 C   0  0  0  0  0  0  0  0  0  0  0  0
  -63.7570 -119.4790  -48.9230 N   0  0  0  0  0  0  0  0  0  0  0  0
  -64.7240 -118.5850  -49.3040 C   0  0  0  0  0  0  0  0  0  0  0  0
  -65.4750 -117.4880  -48.2360 S   0  0  0  0  0  0  0  0  0  0  0  0
  -66.3970 -116.8690  -49.5350 C   0  0  0  0  0  0  0  0  0  0  0  0
  -66.0840 -117.5570  -50.7240 C   0  0  0  0  0  0  0  0  0  0  0  0
  -65.1420 -118.5100  -50.5680 N   0  0  0  0  0  0  0  0  0  0  0  0
  -66.6230 -117.3290  -51.9330 N   0  0  0  0  0  0  0  0  0  0  0  0
  -67.2820 -115.8370  -49.3540 C   0  0  1  0  0  0  0  0  0  0  0  0
  -67.4830 -115.1930  -48.0070 C   0  0  0  0  0  0  0  0  0  0  0  0
  -67.7110 -115.9770  -46.8160 C   0  0  0  0  0  0  0  0  0  0  0  0
  -67.8680 -115.3420  -45.5450 C   0  0  0  0  0  0  0  0  0  0  0  0
  -67.8000 -113.8910  -45.4600 C   0  0  0  0  0  0  0  0  0  0  0  0
  -67.5820 -113.1260  -46.6380 C   0  0  0  0  0  0  0  0  0  0  0  0
  -67.4220 -113.7710  -47.9020 C   0  0  0  0  0  0  0  0  0  0  0  0
  -68.0870 -116.1150  -44.3530 C   0  0  0  0  0  0  0  0  0  0  0  0
  -68.2340 -115.4550  -43.0950 C   0  0  0  0  0  0  0  0  0  0  0  0
  -68.1650 -114.0330  -43.0140 C   0  0  0  0  0  0  0  0  0  0  0  0
  -67.9500 -113.2500  -44.1860 C   0  0  0  0  0  0  0  0  0  0  0  0
  -67.9960 -115.3340  -50.3950 O   0  0  0  0  0  0  0  0  0  0  0  0
  2  1  1  0  0  0  0
  3  2  1  0  0  0  0
  4  3  1  0  0  0  0
  5  4  1  0  0  0  0
  5  6  1  0  0  0  0
  7 11  1  0  0  0  0
  7  6  1  0  0  0  0
  8  9  1  0  0  0  0
  8  7  2  0  0  0  0
  9  5  2  0  0  0  0
 10  8  1  0  0  0  0
 11 22  1  6  0  0  0
 11 12  1  0  0  0  0
 12 17  2  0  0  0  0
 12 13  1  0  0  0  0
 13 14  2  0  0  0  0
 14 15  1  0  0  0  0
 14 18  1  0  0  0  0
 15 21  1  0  0  0  0
 16 15  2  0  0  0  0
 17 16  1  0  0  0  0
 18 19  2  0  0  0  0
 19 20  1  0  0  0  0
 21 20  2  0  0  0  0
M  END
