results/cdk2///ligands/3R8V.A.Z62_473_A.lig
 OpenBabel09152019553D

 21 22  0  0  1  0  0  0  0  0999 V2000
  -65.0440  -81.9560  -86.8490 N   0  0  0  0  0  0  0  0  0  0  0  0
  -65.9620  -80.9850  -86.9850 C   0  0  0  0  0  0  0  0  0  0  0  0
  -66.5280  -80.7370  -88.1990 N   0  0  0  0  0  0  0  0  0  0  0  0
  -66.2450  -80.2900  -85.7800 C   0  0  0  0  0  0  0  0  0  0  0  0
  -67.1230  -79.2380  -85.6110 C   0  0  1  0  0  0  0  0  0  0  0  0
  -67.3840  -78.5420  -84.3100 C   0  0  0  0  0  0  0  0  0  0  0  0
  -67.5480  -79.2730  -83.0820 C   0  0  0  0  0  0  0  0  0  0  0  0
  -67.8190  -78.6090  -81.8370 C   0  0  0  0  0  0  0  0  0  0  0  0
  -67.9270  -77.1660  -81.8640 C   0  0  0  0  0  0  0  0  0  0  0  0
  -67.7670  -76.4380  -83.0710 C   0  0  0  0  0  0  0  0  0  0  0  0
  -67.4960  -77.1160  -84.2900 C   0  0  0  0  0  0  0  0  0  0  0  0
  -67.8070  -78.7490  -86.6610 O   0  0  0  0  0  0  0  0  0  0  0  0
  -65.3170  -80.9250  -84.4780 S   0  0  0  0  0  0  0  0  0  0  0  0
  -64.6040  -82.0440  -85.5690 C   0  0  0  0  0  0  0  0  0  0  0  0
  -63.6460  -82.9660  -85.2010 N   0  0  0  0  0  0  0  0  0  0  0  0
  -63.2480  -83.1340  -83.7980 C   0  0  0  0  0  0  0  0  0  0  0  0
  -62.3290  -82.0260  -83.3370 C   0  0  0  0  0  0  0  0  0  0  0  0
  -62.7320  -81.0920  -82.2550 C   0  0  0  0  0  0  0  0  0  0  0  0
  -67.9640  -79.3090  -80.6970 N   0  0  0  0  0  0  0  0  0  0  0  0
  -67.8520  -80.6400  -80.6730 O   0  0  0  0  0  0  0  0  0  0  0  0
  -68.2000  -78.7660  -79.6410 O   0  0  0  0  0  0  0  0  0  0  0  0
  1 14  2  0  0  0  0
  2  1  1  0  0  0  0
  2  4  2  0  0  0  0
  3  2  1  0  0  0  0
  4  5  1  0  0  0  0
  4 13  1  0  0  0  0
  5 12  1  6  0  0  0
  5  6  1  0  0  0  0
  6 11  2  0  0  0  0
  6  7  1  0  0  0  0
  7  8  2  0  0  0  0
  8 19  1  0  0  0  0
  9  8  1  0  0  0  0
 10  9  2  0  0  0  0
 11 10  1  0  0  0  0
 14 15  1  0  0  0  0
 14 13  1  0  0  0  0
 15 16  1  0  0  0  0
 16 17  1  0  0  0  0
 17 18  1  0  0  0  0
 19 20  2  0  0  0  0
 19 21  2  0  0  0  0
M  END
