results/cdk2///ligands/3RAI.A.X85_923_A.lig
 OpenBabel09152019553D

 30 32  0  0  0  0  0  0  0  0999 V2000
  -65.2320  -44.6360  -10.6160 C   0  0  0  0  0  0  0  0  0  0  0  0
  -66.4920  -44.1540  -10.1540 C   0  0  0  0  0  0  0  0  0  0  0  0
  -67.6680  -44.3170  -10.9680 C   0  0  0  0  0  0  0  0  0  0  0  0
  -67.5470  -44.9580  -12.2540 C   0  0  0  0  0  0  0  0  0  0  0  0
  -66.2750  -45.4420  -12.7250 C   0  0  0  0  0  0  0  0  0  0  0  0
  -65.1060  -45.2860  -11.8970 C   0  0  0  0  0  0  0  0  0  0  0  0
  -66.1860  -46.0900  -14.0620 C   0  0  0  0  0  0  0  0  0  0  0  0
  -67.0620  -45.6170  -15.0210 N   0  0  0  0  0  0  0  0  0  0  0  0
  -65.3850  -46.9610  -14.3480 O   0  0  0  0  0  0  0  0  0  0  0  0
  -68.9060  -43.8680  -10.5390 N   0  0  0  0  0  0  0  0  0  0  0  0
  -69.8780  -44.0440  -11.2870 O   0  0  0  0  0  0  0  0  0  0  0  0
  -68.9990  -43.3150   -9.4220 O   0  0  0  0  0  0  0  0  0  0  0  0
  -63.8620  -45.7610  -12.3360 N   0  0  0  0  0  0  0  0  0  0  0  0
  -62.6180  -45.6470  -11.5590 C   0  0  0  0  0  0  0  0  0  0  0  0
  -66.5730  -43.5240   -8.9110 N   0  0  0  0  0  0  0  0  0  0  0  0
  -66.1050  -44.1510   -7.6900 C   0  0  0  0  0  0  0  0  0  0  0  0
  -64.8590  -43.4150   -7.2390 C   0  0  0  0  0  0  0  0  0  0  0  0
  -64.2040  -44.1360   -6.0770 C   0  0  0  0  0  0  0  0  0  0  0  0
  -60.5810  -43.4510   -5.0370 C   0  0  0  0  0  0  0  0  0  0  0  0
  -61.8230  -44.2900   -5.4060 C   0  0  0  0  0  0  0  0  0  0  0  0
  -63.0170  -43.3550   -5.7220 N   0  0  0  0  0  0  0  0  0  0  0  0
  -63.3450  -42.4180   -4.5270 C   0  0  0  0  0  0  0  0  0  0  0  0
  -62.1040  -41.5770   -4.1480 C   0  0  0  0  0  0  0  0  0  0  0  0
  -60.9110  -41.9300   -5.0720 O   0  0  0  0  0  0  0  0  0  0  0  0
  -62.4590  -48.6500   -8.3680 C   0  0  0  0  0  0  0  0  0  0  0  0
  -62.8120  -49.0350   -9.6990 N   0  0  0  0  0  0  0  0  0  0  0  0
  -62.8660  -48.0740  -10.7460 C   0  0  0  0  0  0  0  0  0  0  0  0
  -62.5630  -46.7080  -10.4590 C   0  0  0  0  0  0  0  0  0  0  0  0
  -62.2110  -46.3250   -9.1310 C   0  0  0  0  0  0  0  0  0  0  0  0
  -62.1580  -47.2930   -8.0830 C   0  0  0  0  0  0  0  0  0  0  0  0
  1  2  1  0  0  0  0
  2 15  1  0  0  0  0
  3 10  1  0  0  0  0
  3  2  2  0  0  0  0
  4  3  1  0  0  0  0
  5  4  2  0  0  0  0
  5  6  1  0  0  0  0
  6  1  2  0  0  0  0
  7  5  1  0  0  0  0
  8  7  1  0  0  0  0
  9  7  2  0  0  0  0
 10 12  2  0  0  0  0
 11 10  2  0  0  0  0
 13  6  1  0  0  0  0
 13 14  1  0  0  0  0
 14 28  1  0  0  0  0
 15 16  1  0  0  0  0
 16 17  1  0  0  0  0
 17 18  1  0  0  0  0
 18 21  1  0  0  0  0
 20 19  1  0  0  0  0
 21 20  1  0  0  0  0
 21 22  1  0  0  0  0
 22 23  1  0  0  0  0
 24 19  1  0  0  0  0
 24 23  1  0  0  0  0
 25 30  1  0  0  0  0
 26 25  2  0  0  0  0
 27 28  2  0  0  0  0
 27 26  1  0  0  0  0
 28 29  1  0  0  0  0
 29 30  2  0  0  0  0
M  END
