results/cdk2///ligands/3RAL.A.04Z_499_A.lig
 OpenBabel09152019543D

 27 29  0  0  1  0  0  0  0  0999 V2000
   95.9080   77.3670  -46.5810 C   0  0  0  0  0  0  0  0  0  0  0  0
   92.1830   82.2250  -50.7910 N   0  0  0  0  0  0  0  0  0  0  0  0
   86.0320   80.9820  -44.9520 O   0  0  0  0  0  0  0  0  0  0  0  0
   92.8390   80.9390  -48.6460 S   0  0  0  0  0  0  0  0  0  0  0  0
   96.9100   78.2360  -47.1960 C   0  0  0  0  0  0  0  0  0  0  0  0
   93.7360   81.4270  -52.3760 N   0  0  0  0  0  0  0  0  0  0  0  0
   86.7200   83.3220  -43.8580 O   0  0  0  0  0  0  0  0  0  0  0  0
   87.2540   81.8790  -44.4080 S   0  0  0  0  0  0  0  0  0  0  0  0
   96.5820   79.0040  -48.3690 C   0  0  0  0  0  0  0  0  0  0  0  0
   90.8080   82.8040  -48.9980 N   0  0  0  0  0  0  0  0  0  0  0  0
   95.5220   79.5680  -51.3300 O   0  0  0  0  0  0  0  0  0  0  0  0
   94.2490   78.0420  -48.3230 C   0  0  0  0  0  0  0  0  0  0  0  0
   87.9830   81.1020  -43.2730 N   0  0  0  0  0  0  0  0  0  0  0  0
   94.5620   77.2710  -47.1570 C   0  0  0  0  0  0  0  0  0  0  0  0
   98.2000   78.3500  -46.6630 O   0  0  0  0  0  0  0  0  0  0  0  0
   98.6200   77.6970  -45.5780 C   0  0  0  0  0  0  0  0  0  0  0  0
   95.2440   78.9190  -48.9490 C   0  0  0  0  0  0  0  0  0  0  0  0
   94.8610   79.7120  -50.1590 C   0  0  2  0  0  0  0  0  0  0  0  0
   93.7160   80.6740  -50.0860 C   0  0  0  0  0  0  0  0  0  0  0  0
   93.2330   81.4430  -51.1270 C   0  0  0  0  0  0  0  0  0  0  0  0
   91.8540   82.0730  -49.5030 C   0  0  0  0  0  0  0  0  0  0  0  0
   90.0080   82.5480  -47.9000 C   0  0  0  0  0  0  0  0  0  0  0  0
   90.1520   81.3600  -47.0210 C   0  0  0  0  0  0  0  0  0  0  0  0
   89.2910   81.1520  -45.9220 C   0  0  0  0  0  0  0  0  0  0  0  0
   88.2490   82.1150  -45.6420 C   0  0  0  0  0  0  0  0  0  0  0  0
   88.0950   83.2940  -46.4870 C   0  0  0  0  0  0  0  0  0  0  0  0
   88.9580   83.5070  -47.5960 C   0  0  0  0  0  0  0  0  0  0  0  0
  2 21  2  0  0  0  0
  3  8  2  0  0  0  0
  5 15  1  0  0  0  0
  5  1  2  0  0  0  0
  6 20  1  0  0  0  0
  8  7  2  0  0  0  0
  8 13  1  0  0  0  0
  9  5  1  0  0  0  0
 10 22  1  0  0  0  0
 12 14  2  0  0  0  0
 14  1  1  0  0  0  0
 15 16  1  0  0  0  0
 17  9  2  0  0  0  0
 17 12  1  0  0  0  0
 18 11  1  6  0  0  0
 18 19  1  0  0  0  0
 18 17  1  0  0  0  0
 19  4  1  0  0  0  0
 20  2  1  0  0  0  0
 20 19  2  0  0  0  0
 21 10  1  0  0  0  0
 21  4  1  0  0  0  0
 22 27  2  0  0  0  0
 22 23  1  0  0  0  0
 23 24  2  0  0  0  0
 24 25  1  0  0  0  0
 25  8  1  0  0  0  0
 26 25  2  0  0  0  0
 27 26  1  0  0  0  0
M  END
