results/cdk2///ligands/3RJC.A.06Z_450_A.lig
 OpenBabel09152019553D

 22 24  0  0  1  0  0  0  0  0999 V2000
  114.0100   49.0010  -44.7830 F   0  0  0  0  0  0  0  0  0  0  0  0
  118.3270   46.1870  -49.8130 N   0  0  0  0  0  0  0  0  0  0  0  0
  119.4320   45.4120  -50.0910 C   0  0  0  0  0  0  0  0  0  0  0  0
  119.9130   45.3890  -51.3240 N   0  0  0  0  0  0  0  0  0  0  0  0
  119.9790   44.6580  -49.0250 C   0  0  2  0  0  0  0  0  0  0  0  0
  121.1320   43.7530  -49.1220 C   0  0  0  0  0  0  0  0  0  0  0  0
  121.6050   42.9450  -47.9310 C   0  0  0  0  0  0  0  0  0  0  0  0
  120.6640   42.1670  -47.1220 C   0  0  0  0  0  0  0  0  0  0  0  0
  121.1120   41.3910  -46.0040 C   0  0  0  0  0  0  0  0  0  0  0  0
  122.5130   41.3730  -45.6730 C   0  0  0  0  0  0  0  0  0  0  0  0
  123.4600   42.1330  -46.4620 C   0  0  0  0  0  0  0  0  0  0  0  0
  123.0100   42.9180  -47.5900 C   0  0  0  0  0  0  0  0  0  0  0  0
  121.7370   43.6010  -50.2120 O   0  0  0  0  0  0  0  0  0  0  0  0
  119.0150   45.0010  -47.6040 S   0  0  0  0  0  0  0  0  0  0  0  0
  117.9920   46.0660  -48.5620 C   0  0  0  0  0  0  0  0  0  0  0  0
  116.8920   46.7440  -48.0830 N   0  0  0  0  0  0  0  0  0  0  0  0
  116.2540   46.8220  -46.8120 C   0  0  0  0  0  0  0  0  0  0  0  0
  115.4060   47.9440  -46.4370 C   0  0  0  0  0  0  0  0  0  0  0  0
  114.7900   47.9490  -45.1120 C   0  0  0  0  0  0  0  0  0  0  0  0
  114.9870   46.8850  -44.1570 C   0  0  0  0  0  0  0  0  0  0  0  0
  115.8310   45.7620  -44.5380 C   0  0  0  0  0  0  0  0  0  0  0  0
  116.4580   45.7260  -45.8500 C   0  0  0  0  0  0  0  0  0  0  0  0
  2 15  2  0  0  0  0
  3  2  1  0  0  0  0
  3  5  1  0  0  0  0
  4  3  2  0  0  0  0
  5  6  1  6  0  0  0
  5 14  1  0  0  0  0
  6  7  1  0  0  0  0
  7 12  2  0  0  0  0
  7  8  1  0  0  0  0
  8  9  2  0  0  0  0
  9 10  1  0  0  0  0
 11 10  2  0  0  0  0
 12 11  1  0  0  0  0
 13  6  2  0  0  0  0
 15 16  1  0  0  0  0
 15 14  1  0  0  0  0
 16 17  1  0  0  0  0
 17 18  2  0  0  0  0
 17 22  1  0  0  0  0
 18 19  1  0  0  0  0
 19  1  1  0  0  0  0
 19 20  2  0  0  0  0
 21 20  1  0  0  0  0
 22 21  2  0  0  0  0
M  END
