results/cdk2///ligands/3RK7.A.08Z_467_A.lig
 OpenBabel09152019553D

 24 26  0  0  0  0  0  0  0  0999 V2000
   90.2690  118.4390  -47.6000 C   0  0  0  0  0  0  0  0  0  0  0  0
   90.8270  118.5070  -48.8550 N   0  0  0  0  0  0  0  0  0  0  0  0
   91.9270  117.8440  -49.3480 C   0  0  0  0  0  0  0  0  0  0  0  0
   92.2760  118.0470  -50.6280 N   0  0  0  0  0  0  0  0  0  0  0  0
   93.3480  117.3120  -50.9620 C   0  0  0  0  0  0  0  0  0  0  0  0
   93.8360  116.5240  -49.9360 C   0  0  0  0  0  0  0  0  0  0  0  0
   92.9550  116.7230  -48.4980 S   0  0  0  0  0  0  0  0  0  0  0  0
   93.8390  117.3380  -52.1350 N   0  0  0  0  0  0  0  0  0  0  0  0
   94.9960  115.5970  -50.0580 C   0  0  0  0  0  0  0  0  0  0  0  0
   95.4480  114.7020  -48.9530 C   0  0  0  0  0  0  0  0  0  0  0  0
   94.4710  113.9440  -48.1900 C   0  0  0  0  0  0  0  0  0  0  0  0
   94.8730  113.0720  -47.1520 C   0  0  0  0  0  0  0  0  0  0  0  0
   96.2550  112.9450  -46.8720 C   0  0  0  0  0  0  0  0  0  0  0  0
   97.1790  113.6680  -47.6110 N   0  0  0  0  0  0  0  0  0  0  0  0
   96.8220  114.5360  -48.6390 C   0  0  0  0  0  0  0  0  0  0  0  0
   95.6430  115.5510  -51.2240 O   0  0  0  0  0  0  0  0  0  0  0  0
   89.5510  119.5920  -47.1060 C   0  0  0  0  0  0  0  0  0  0  0  0
   88.9390  119.5700  -45.8230 C   0  0  0  0  0  0  0  0  0  0  0  0
   89.0190  118.3950  -44.9930 C   0  0  0  0  0  0  0  0  0  0  0  0
   89.7270  117.2500  -45.4780 C   0  0  0  0  0  0  0  0  0  0  0  0
   90.3410  117.2690  -46.7580 C   0  0  0  0  0  0  0  0  0  0  0  0
   88.3620  118.3870  -43.6490 C   0  0  0  0  0  0  0  0  0  0  0  0
   87.7050  119.4950  -43.2390 O   0  0  0  0  0  0  0  0  0  0  0  0
   88.4010  117.3480  -42.8650 N   0  0  0  0  0  0  0  0  0  0  0  0
  1 17  2  0  0  0  0
  1 21  1  0  0  0  0
  2  1  1  0  0  0  0
  3  2  1  0  0  0  0
  3  7  1  0  0  0  0
  4  3  2  0  0  0  0
  5  4  1  0  0  0  0
  5  6  1  0  0  0  0
  6  7  1  0  0  0  0
  8  5  2  0  0  0  0
  9  6  2  0  0  0  0
  9 10  1  0  0  0  0
 10 15  2  0  0  0  0
 10 11  1  0  0  0  0
 11 12  2  0  0  0  0
 12 13  1  0  0  0  0
 14 13  2  0  0  0  0
 15 14  1  0  0  0  0
 16  9  1  0  0  0  0
 17 18  1  0  0  0  0
 18 19  2  0  0  0  0
 19 22  1  0  0  0  0
 20 19  1  0  0  0  0
 21 20  2  0  0  0  0
 22 23  2  0  0  0  0
 22 24  1  0  0  0  0
M  END
