results/cdk2///ligands/3RK9.A.09Z_483_A.lig
 OpenBabel09152019553D

 18 19  0  0  0  0  0  0  0  0999 V2000
  -35.8730  -83.6810  -83.0850 C   0  0  0  0  0  0  0  0  0  0  0  0
  -36.7130  -82.4730  -83.5880 C   0  0  0  0  0  0  0  0  0  0  0  0
  -35.8030  -81.2220  -83.6980 C   0  0  0  0  0  0  0  0  0  0  0  0
  -37.2740  -82.8280  -84.9060 N   0  0  0  0  0  0  0  0  0  0  0  0
  -38.3130  -82.1010  -85.4720 C   0  0  0  0  0  0  0  0  0  0  0  0
  -38.6380  -82.2620  -86.7830 N   0  0  0  0  0  0  0  0  0  0  0  0
  -39.6590  -81.4630  -87.1120 C   0  0  0  0  0  0  0  0  0  0  0  0
  -40.1190  -80.6870  -86.0820 C   0  0  0  0  0  0  0  0  0  0  0  0
  -39.2630  -80.9690  -84.6400 S   0  0  0  0  0  0  0  0  0  0  0  0
  -40.1420  -81.4320  -88.3100 N   0  0  0  0  0  0  0  0  0  0  0  0
  -41.2510  -79.6910  -86.2060 C   0  0  0  0  0  0  0  0  0  0  0  0
  -41.7070  -78.8200  -85.0940 C   0  0  0  0  0  0  0  0  0  0  0  0
  -40.7260  -78.1020  -84.2910 C   0  0  0  0  0  0  0  0  0  0  0  0
  -41.1310  -77.2390  -83.2080 C   0  0  0  0  0  0  0  0  0  0  0  0
  -42.5200  -77.0910  -82.9320 C   0  0  0  0  0  0  0  0  0  0  0  0
  -43.4650  -77.7760  -83.7100 N   0  0  0  0  0  0  0  0  0  0  0  0
  -43.1120  -78.6400  -84.7900 C   0  0  0  0  0  0  0  0  0  0  0  0
  -41.8640  -79.5700  -87.4050 O   0  0  0  0  0  0  0  0  0  0  0  0
  2  1  1  0  0  0  0
  3  2  1  0  0  0  0
  4  2  1  0  0  0  0
  5  4  1  0  0  0  0
  5  9  1  0  0  0  0
  6  5  2  0  0  0  0
  7  6  1  0  0  0  0
  7  8  1  0  0  0  0
  8  9  1  0  0  0  0
 10  7  2  0  0  0  0
 11  8  2  0  0  0  0
 11 12  1  0  0  0  0
 12 17  2  0  0  0  0
 12 13  1  0  0  0  0
 13 14  2  0  0  0  0
 14 15  1  0  0  0  0
 16 15  2  0  0  0  0
 17 16  1  0  0  0  0
 18 11  1  0  0  0  0
M  END
