results/cdk2///ligands/3RKB.A.12Z_457_A.lig
 OpenBabel09152019543D

 21 23  0  0  0  0  0  0  0  0999 V2000
  -93.8840  -44.8330  -49.7350 C   0  0  0  0  0  0  0  0  0  0  0  0
  -93.3740  -45.5890  -50.7440 C   0  0  0  0  0  0  0  0  0  0  0  0
  -92.3210  -46.4070  -50.3590 N   0  0  0  0  0  0  0  0  0  0  0  0
  -92.0240  -46.2780  -49.0780 C   0  0  0  0  0  0  0  0  0  0  0  0
  -93.0280  -45.1410  -48.2220 S   0  0  0  0  0  0  0  0  0  0  0  0
  -95.0020  -43.8540  -49.8160 C   0  0  0  0  0  0  0  0  0  0  0  0
  -93.8170  -45.5820  -52.0490 N   0  0  0  0  0  0  0  0  0  0  0  0
  -91.0150  -46.9460  -48.4550 N   0  0  0  0  0  0  0  0  0  0  0  0
  -95.6690  -43.7890  -50.8710 O   0  0  0  0  0  0  0  0  0  0  0  0
  -96.0460  -41.2670  -46.5090 C   0  0  0  0  0  0  0  0  0  0  0  0
  -97.0290  -41.9190  -47.2130 N   0  0  0  0  0  0  0  0  0  0  0  0
  -96.6730  -42.7390  -48.2620 C   0  0  0  0  0  0  0  0  0  0  0  0
  -95.3090  -42.9460  -48.6590 C   0  0  0  0  0  0  0  0  0  0  0  0
  -94.2910  -42.2460  -47.9100 C   0  0  0  0  0  0  0  0  0  0  0  0
  -94.6550  -41.3980  -46.8200 C   0  0  0  0  0  0  0  0  0  0  0  0
  -89.0640  -45.4970  -45.5100 C   0  0  0  0  0  0  0  0  0  0  0  0
  -89.6220  -45.6220  -46.9480 C   0  0  0  0  0  0  0  0  0  0  0  0
  -90.5440  -46.8860  -47.0970 C   0  0  0  0  0  0  0  0  0  0  0  0
  -89.7510  -48.1660  -46.7100 C   0  0  0  0  0  0  0  0  0  0  0  0
  -89.2370  -48.0590  -45.2460 C   0  0  0  0  0  0  0  0  0  0  0  0
  -88.3360  -46.8030  -45.0650 C   0  0  0  0  0  0  0  0  0  0  0  0
  1  5  1  0  0  0  0
  2  3  1  0  0  0  0
  2  1  2  0  0  0  0
  3  4  2  0  0  0  0
  4  8  1  0  0  0  0
  4  5  1  0  0  0  0
  6  1  1  0  0  0  0
  6 13  1  0  0  0  0
  7  2  1  0  0  0  0
  8 18  1  0  0  0  0
  9  6  2  0  0  0  0
 11 10  2  0  0  0  0
 12 11  1  0  0  0  0
 13 12  2  0  0  0  0
 13 14  1  0  0  0  0
 14 15  2  0  0  0  0
 15 10  1  0  0  0  0
 16 21  1  0  0  0  0
 17 16  1  0  0  0  0
 18 17  1  0  0  0  0
 18 19  1  0  0  0  0
 19 20  1  0  0  0  0
 20 21  1  0  0  0  0
M  END
