results/cdk2///ligands/3RM6.A.18Z_478_A.lig
 OpenBabel09152019553D

 30 32  0  0  0  0  0  0  0  0999 V2000
   94.4430   45.9450  -88.5310 N   0  0  0  0  0  0  0  0  0  0  0  0
   95.0580   44.5070  -82.3910 N   0  0  0  0  0  0  0  0  0  0  0  0
   91.8220   46.3600  -85.3840 N   0  0  0  0  0  0  0  0  0  0  0  0
   90.2650   47.3550  -81.0160 N   0  0  0  0  0  0  0  0  0  0  0  0
   90.3650   49.2440  -82.5290 N   0  0  0  0  0  0  0  0  0  0  0  0
   90.1790   49.4840  -80.2960 N   0  0  0  0  0  0  0  0  0  0  0  0
   94.8670   41.4080  -80.4850 N   0  0  0  0  0  0  0  0  0  0  0  0
   95.2290   38.6890  -79.6180 N   0  0  0  0  0  0  0  0  0  0  0  0
   96.9250   44.5180  -84.4180 N   0  0  0  0  0  0  0  0  0  0  0  0
   95.3490   45.4460  -85.9090 C   0  0  0  0  0  0  0  0  0  0  0  0
   94.0240   45.9320  -86.1830 C   0  0  0  0  0  0  0  0  0  0  0  0
   93.0360   45.9180  -85.1370 C   0  0  0  0  0  0  0  0  0  0  0  0
   93.4190   45.4180  -83.8330 C   0  0  0  0  0  0  0  0  0  0  0  0
   94.7410   44.9400  -83.5690 C   0  0  0  0  0  0  0  0  0  0  0  0
   95.7200   44.9480  -84.6190 C   0  0  0  0  0  0  0  0  0  0  0  0
   93.7360   46.4030  -87.4520 C   0  0  0  0  0  0  0  0  0  0  0  0
   90.5980   46.0250  -84.5880 C   0  0  0  0  0  0  0  0  0  0  0  0
   90.4710   46.9730  -83.4210 C   0  0  0  0  0  0  0  0  0  0  0  0
   90.3680   46.5220  -82.1000 C   0  0  0  0  0  0  0  0  0  0  0  0
   90.2710   48.6910  -81.2850 C   0  0  0  0  0  0  0  0  0  0  0  0
   90.4650   48.3620  -83.5720 C   0  0  0  0  0  0  0  0  0  0  0  0
   94.2840   43.4470  -81.6990 C   0  0  0  0  0  0  0  0  0  0  0  0
   95.1590   42.8170  -80.6060 C   0  0  0  0  0  0  0  0  0  0  0  0
   94.0170   40.8140  -79.4470 C   0  0  0  0  0  0  0  0  0  0  0  0
   94.7760   39.7070  -78.6830 C   0  0  0  0  0  0  0  0  0  0  0  0
   96.1260   39.2930  -80.5890 C   0  0  0  0  0  0  0  0  0  0  0  0
   95.3620   40.3610  -81.3850 C   0  0  0  0  0  0  0  0  0  0  0  0
   92.8590   47.2400  -87.6310 O   0  0  0  0  0  0  0  0  0  0  0  0
   97.9270   44.9530  -85.1520 O   0  0  0  0  0  0  0  0  0  0  0  0
   97.1790   43.6160  -83.4920 O   0  0  0  0  0  0  0  0  0  0  0  0
  1 16  1  0  0  0  0
  2 22  1  0  0  0  0
  3 12  1  0  0  0  0
  3 17  1  0  0  0  0
  5 20  1  0  0  0  0
  7 24  1  0  0  0  0
  8 25  1  0  0  0  0
  9 30  2  0  0  0  0
 10 15  1  0  0  0  0
 11 10  2  0  0  0  0
 11 12  1  0  0  0  0
 12 13  2  0  0  0  0
 13 14  1  0  0  0  0
 14  2  1  0  0  0  0
 15  9  1  0  0  0  0
 15 14  2  0  0  0  0
 16 11  1  0  0  0  0
 17 18  1  0  0  0  0
 18 19  2  0  0  0  0
 19  4  1  0  0  0  0
 20  4  2  0  0  0  0
 20  6  1  0  0  0  0
 21 18  1  0  0  0  0
 21  5  2  0  0  0  0
 22 23  1  0  0  0  0
 23  7  1  0  0  0  0
 24 25  1  0  0  0  0
 26  8  1  0  0  0  0
 27 26  1  0  0  0  0
 27  7  1  0  0  0  0
 28 16  2  0  0  0  0
 29  9  2  0  0  0  0
M  END
