results/cdk2///ligands/3RNI.A.21Z_424_A.lig
 OpenBabel09152019553D

 25 27  0  0  1  0  0  0  0  0999 V2000
  -38.4130  118.2670   86.0070 N   0  0  0  0  0  0  0  0  0  0  0  0
  -37.1470  118.7870   84.1970 N   0  0  0  0  0  0  0  0  0  0  0  0
  -39.9700  117.4340   87.5180 N   0  0  0  0  0  0  0  0  0  0  0  0
  -34.6300  122.4010   81.6300 N   0  0  0  0  0  0  0  0  0  0  0  0
  -40.1260  116.8060   85.2660 C   0  0  2  0  0  0  0  0  0  0  0  0
  -39.5310  117.5010   86.3280 C   0  0  0  0  0  0  0  0  0  0  0  0
  -38.1560  118.1610   84.7150 C   0  0  0  0  0  0  0  0  0  0  0  0
  -41.2450  115.9660   85.3540 C   0  0  0  0  0  0  0  0  0  0  0  0
  -36.6380  118.6570   83.0000 C   0  0  0  0  0  0  0  0  0  0  0  0
  -41.5970  115.1100   84.3160 C   0  0  0  0  0  0  0  0  0  0  0  0
  -35.9690  119.7800   82.4490 C   0  0  0  0  0  0  0  0  0  0  0  0
  -35.3880  119.7170   81.1620 C   0  0  0  0  0  0  0  0  0  0  0  0
  -35.4650  118.5260   80.3910 C   0  0  0  0  0  0  0  0  0  0  0  0
  -36.1270  117.3810   80.9200 C   0  0  0  0  0  0  0  0  0  0  0  0
  -36.7100  117.4430   82.2210 C   0  0  0  0  0  0  0  0  0  0  0  0
  -40.6500  114.1880   83.7570 C   0  0  0  0  0  0  0  0  0  0  0  0
  -41.0310  113.3230   82.6930 C   0  0  0  0  0  0  0  0  0  0  0  0
  -42.3510  113.3660   82.1800 C   0  0  0  0  0  0  0  0  0  0  0  0
  -43.3000  114.2710   82.7270 C   0  0  0  0  0  0  0  0  0  0  0  0
  -42.9250  115.1410   83.7910 C   0  0  0  0  0  0  0  0  0  0  0  0
  -41.9250  115.9710   86.3700 O   0  0  0  0  0  0  0  0  0  0  0  0
  -33.1580  120.7970   80.2760 O   0  0  0  0  0  0  0  0  0  0  0  0
  -35.1860  121.5330   79.2490 O   0  0  0  0  0  0  0  0  0  0  0  0
  -39.2490  117.1460   83.8280 S   0  0  0  0  0  0  0  0  0  0  0  0
  -34.5530  121.1460   80.5080 S   0  0  0  0  0  0  0  0  0  0  0  0
  1  6  1  0  0  0  0
  2  7  1  0  0  0  0
  5  8  1  1  0  0  0
  5  6  1  0  0  0  0
  6  3  2  0  0  0  0
  7  1  2  0  0  0  0
  8 21  2  0  0  0  0
  9  2  1  0  0  0  0
 10  8  1  0  0  0  0
 11  9  1  0  0  0  0
 12 11  2  0  0  0  0
 13 14  2  0  0  0  0
 13 12  1  0  0  0  0
 14 15  1  0  0  0  0
 15  9  2  0  0  0  0
 16 10  2  0  0  0  0
 17 16  1  0  0  0  0
 18 17  2  0  0  0  0
 18 19  1  0  0  0  0
 19 20  2  0  0  0  0
 20 10  1  0  0  0  0
 22 25  2  0  0  0  0
 23 25  2  0  0  0  0
 24  7  1  0  0  0  0
 24  5  1  0  0  0  0
 25 12  1  0  0  0  0
 25  4  1  0  0  0  0
M  END
