results/cdk2///ligands/3RPO.A.24Z_778_A.lig
 OpenBabel09152019553D

 27 28  0  0  0  0  0  0  0  0999 V2000
   63.7870   82.0240   24.2740 N   0  0  0  0  0  0  0  0  0  0  0  0
   66.9320   81.8670   21.5820 N   0  0  0  0  0  0  0  0  0  0  0  0
   62.3150   85.0030   26.9990 N   0  0  0  0  0  0  0  0  0  0  0  0
   66.4120   79.8450   27.5730 N   0  0  0  0  0  0  0  0  0  0  0  0
   68.6390   80.0350   25.8850 N   0  0  0  0  0  0  0  0  0  0  0  0
   67.3440   81.1150   24.2540 C   0  0  0  0  0  0  0  0  0  0  0  0
   66.0900   81.6430   23.8040 C   0  0  0  0  0  0  0  0  0  0  0  0
   64.9360   81.5500   24.6660 C   0  0  0  0  0  0  0  0  0  0  0  0
   65.0840   80.9240   25.9570 C   0  0  0  0  0  0  0  0  0  0  0  0
   66.3300   80.3990   26.4010 C   0  0  0  0  0  0  0  0  0  0  0  0
   67.4860   80.4940   25.5350 C   0  0  0  0  0  0  0  0  0  0  0  0
   66.0310   82.2260   22.5320 C   0  0  0  0  0  0  0  0  0  0  0  0
   62.4760   81.7640   24.9420 C   0  0  0  0  0  0  0  0  0  0  0  0
   62.2660   82.7230   26.1020 C   0  0  0  0  0  0  0  0  0  0  0  0
   62.4870   84.1080   25.9630 C   0  0  0  0  0  0  0  0  0  0  0  0
   61.9090   84.5040   28.2120 C   0  0  0  0  0  0  0  0  0  0  0  0
   61.6640   83.1390   28.4480 C   0  0  0  0  0  0  0  0  0  0  0  0
   61.8490   82.2460   27.3730 C   0  0  0  0  0  0  0  0  0  0  0  0
   65.4390   78.8230   28.0150 C   0  0  0  0  0  0  0  0  0  0  0  0
   65.1040   79.0200   29.4890 C   0  0  0  0  0  0  0  0  0  0  0  0
   65.6520   77.8400   30.2870 C   0  0  0  0  0  0  0  0  0  0  0  0
   65.2230   77.9420   31.7370 C   0  0  0  0  0  0  0  0  0  0  0  0
   65.1890   83.0420   22.2380 O   0  0  0  0  0  0  0  0  0  0  0  0
   65.9470   78.6650   32.6030 O   0  0  0  0  0  0  0  0  0  0  0  0
   64.2280   77.3650   32.1140 O   0  0  0  0  0  0  0  0  0  0  0  0
   69.7050   80.2530   25.1300 O   0  0  0  0  0  0  0  0  0  0  0  0
   68.7880   79.3440   26.9820 O   0  0  0  0  0  0  0  0  0  0  0  0
  1  8  1  0  0  0  0
  1 13  1  0  0  0  0
  2 12  1  0  0  0  0
  3 16  1  0  0  0  0
  4 19  1  0  0  0  0
  5 27  2  0  0  0  0
  6 11  1  0  0  0  0
  7  6  2  0  0  0  0
  7  8  1  0  0  0  0
  8  9  2  0  0  0  0
  9 10  1  0  0  0  0
 10  4  1  0  0  0  0
 11  5  1  0  0  0  0
 11 10  2  0  0  0  0
 12  7  1  0  0  0  0
 13 14  1  0  0  0  0
 14 18  2  0  0  0  0
 15 14  1  0  0  0  0
 15  3  2  0  0  0  0
 16 17  2  0  0  0  0
 18 17  1  0  0  0  0
 19 20  1  0  0  0  0
 20 21  1  0  0  0  0
 21 22  1  0  0  0  0
 22 25  2  0  0  0  0
 22 24  1  0  0  0  0
 23 12  2  0  0  0  0
 26  5  2  0  0  0  0
M  END
