results/cdk2///ligands/3RPY.A.27Z_470_A.lig
 OpenBabel09152019553D

 20 21  0  0  0  0  0  0  0  0999 V2000
   94.8100   79.4090  -50.3500 C   0  0  0  0  0  0  0  0  0  0  0  0
   92.0210   81.7540  -51.1040 N   0  0  0  0  0  0  0  0  0  0  0  0
   85.9700   80.6000  -45.1070 O   0  0  0  0  0  0  0  0  0  0  0  0
   92.7240   80.6410  -48.8960 S   0  0  0  0  0  0  0  0  0  0  0  0
   93.5940   80.9370  -52.6470 N   0  0  0  0  0  0  0  0  0  0  0  0
   86.5650   83.0100  -44.1800 O   0  0  0  0  0  0  0  0  0  0  0  0
   87.1590   81.5620  -44.6400 S   0  0  0  0  0  0  0  0  0  0  0  0
   90.6290   82.3810  -49.3290 N   0  0  0  0  0  0  0  0  0  0  0  0
   87.9220   80.8690  -43.4730 N   0  0  0  0  0  0  0  0  0  0  0  0
   93.6250   80.3140  -50.3160 C   0  0  0  0  0  0  0  0  0  0  0  0
   93.1030   80.9970  -51.3970 C   0  0  0  0  0  0  0  0  0  0  0  0
   91.6990   81.6690  -49.8140 C   0  0  0  0  0  0  0  0  0  0  0  0
   89.8510   82.1390  -48.2220 C   0  0  0  0  0  0  0  0  0  0  0  0
   90.0270   80.9680  -47.2870 C   0  0  0  0  0  0  0  0  0  0  0  0
   89.1820   80.7890  -46.1620 C   0  0  0  0  0  0  0  0  0  0  0  0
   88.1210   81.7600  -45.9030 C   0  0  0  0  0  0  0  0  0  0  0  0
   87.9320   82.9100  -46.7980 C   0  0  0  0  0  0  0  0  0  0  0  0
   88.7780   83.0970  -47.9370 C   0  0  0  0  0  0  0  0  0  0  0  0
   95.4340   79.2110  -51.4000 O   0  0  0  0  0  0  0  0  0  0  0  0
   95.1510   78.8240  -49.2010 N   0  0  0  0  0  0  0  0  0  0  0  0
  1 10  1  0  0  0  0
  1 20  1  0  0  0  0
  2 12  2  0  0  0  0
  3  7  2  0  0  0  0
  5 11  1  0  0  0  0
  7  6  2  0  0  0  0
  7  9  1  0  0  0  0
  8 13  1  0  0  0  0
 10  4  1  0  0  0  0
 11  2  1  0  0  0  0
 11 10  2  0  0  0  0
 12  8  1  0  0  0  0
 12  4  1  0  0  0  0
 13 18  2  0  0  0  0
 13 14  1  0  0  0  0
 14 15  2  0  0  0  0
 15 16  1  0  0  0  0
 16  7  1  0  0  0  0
 17 16  2  0  0  0  0
 18 17  1  0  0  0  0
 19  1  2  0  0  0  0
M  END
