results/cdk2///ligands/3RZB.A.02Z_458_A.lig
 OpenBabel09152019543D

 16 17  0  0  0  0  0  0  0  0999 V2000
   94.4780   79.6370  -50.1200 C   0  0  0  0  0  0  0  0  0  0  0  0
   91.7900   82.0990  -51.0290 N   0  0  0  0  0  0  0  0  0  0  0  0
   92.3540   80.9210  -48.8170 S   0  0  0  0  0  0  0  0  0  0  0  0
   93.4440   81.2580  -52.4820 N   0  0  0  0  0  0  0  0  0  0  0  0
   90.3180   82.7280  -49.2810 N   0  0  0  0  0  0  0  0  0  0  0  0
   93.3190   80.5890  -50.1700 C   0  0  0  0  0  0  0  0  0  0  0  0
   92.8790   81.3100  -51.2750 C   0  0  0  0  0  0  0  0  0  0  0  0
   91.3950   81.9920  -49.7580 C   0  0  0  0  0  0  0  0  0  0  0  0
   89.5730   82.5770  -48.1340 C   0  0  0  0  0  0  0  0  0  0  0  0
   89.7610   81.4740  -47.0800 C   0  0  0  0  0  0  0  0  0  0  0  0
   88.9440   81.4140  -45.9120 C   0  0  0  0  0  0  0  0  0  0  0  0
   87.8970   82.4440  -45.7130 C   0  0  0  0  0  0  0  0  0  0  0  0
   87.6960   83.5210  -46.7170 C   0  0  0  0  0  0  0  0  0  0  0  0
   88.5150   83.5860  -47.9070 C   0  0  0  0  0  0  0  0  0  0  0  0
   95.1730   79.4140  -51.1220 O   0  0  0  0  0  0  0  0  0  0  0  0
   94.7070   79.0410  -48.9410 N   0  0  0  0  0  0  0  0  0  0  0  0
  1 16  1  0  0  0  0
  2  8  2  0  0  0  0
  4  7  1  0  0  0  0
  5  9  1  0  0  0  0
  6  1  1  0  0  0  0
  6  3  1  0  0  0  0
  7  2  1  0  0  0  0
  7  6  2  0  0  0  0
  8  5  1  0  0  0  0
  8  3  1  0  0  0  0
  9 14  2  0  0  0  0
  9 10  1  0  0  0  0
 10 11  2  0  0  0  0
 11 12  1  0  0  0  0
 13 12  2  0  0  0  0
 14 13  1  0  0  0  0
 15  1  2  0  0  0  0
M  END
