results/cdk2///ligands/3S00.A.Z60_461_A.lig
 OpenBabel09152019553D

 18 19  0  0  0  0  0  0  0  0999 V2000
  -81.2810   99.2500  -57.3380 Cl  0  0  0  0  0  0  0  0  0  0  0  0
  -78.0420  104.1110  -64.1900 N   0  0  0  0  0  0  0  0  0  0  0  0
  -78.9680  104.1980  -63.1860 C   0  0  0  0  0  0  0  0  0  0  0  0
  -79.3860  105.4660  -63.0490 N   0  0  0  0  0  0  0  0  0  0  0  0
  -79.3220  103.0690  -62.4950 C   0  0  0  0  0  0  0  0  0  0  0  0
  -80.2710  102.9450  -61.3960 C   0  0  0  0  0  0  0  0  0  0  0  0
  -80.4500  101.6540  -60.6680 C   0  0  0  0  0  0  0  0  0  0  0  0
  -80.9120  103.9510  -61.0510 O   0  0  0  0  0  0  0  0  0  0  0  0
  -78.4250  101.7790  -63.1500 S   0  0  0  0  0  0  0  0  0  0  0  0
  -77.6550  102.8530  -64.2830 C   0  0  0  0  0  0  0  0  0  0  0  0
  -76.7250  102.4730  -65.1990 N   0  0  0  0  0  0  0  0  0  0  0  0
  -76.3140  101.0900  -65.4150 C   0  0  0  0  0  0  0  0  0  0  0  0
  -74.9710  101.0270  -66.1490 C   0  0  0  0  0  0  0  0  0  0  0  0
  -74.5370   99.5910  -66.3820 C   0  0  0  0  0  0  0  0  0  0  0  0
  -80.8510  101.7080  -58.9800 S   0  0  0  0  0  0  0  0  0  0  0  0
  -80.9000  100.0170  -58.8580 C   0  0  0  0  0  0  0  0  0  0  0  0
  -80.6220   99.3880  -60.0390 C   0  0  0  0  0  0  0  0  0  0  0  0
  -80.3600  100.3290  -61.0940 C   0  0  0  0  0  0  0  0  0  0  0  0
  2  3  1  0  0  0  0
  3  4  1  0  0  0  0
  3  5  2  0  0  0  0
  5  6  1  0  0  0  0
  6  8  2  0  0  0  0
  6  7  1  0  0  0  0
  7 15  1  0  0  0  0
  9  5  1  0  0  0  0
 10  2  2  0  0  0  0
 10  9  1  0  0  0  0
 11 10  1  0  0  0  0
 12 11  1  0  0  0  0
 13 12  1  0  0  0  0
 14 13  1  0  0  0  0
 15 16  1  0  0  0  0
 16  1  1  0  0  0  0
 17 16  2  0  0  0  0
 18  7  2  0  0  0  0
 18 17  1  0  0  0  0
M  END
