results/cdk2///ligands/3SQQ.A.99Z_456_A.lig
 OpenBabel09152019553D

 26 28  0  0  0  0  0  0  0  0999 V2000
  -95.7030   10.6110  -50.3950 N   0  0  0  0  0  0  0  0  0  0  0  0
  -97.0260   11.1690  -48.5350 N   0  0  0  0  0  0  0  0  0  0  0  0
  -94.0870    9.7070  -52.0970 N   0  0  0  0  0  0  0  0  0  0  0  0
  -99.9650    9.3320  -42.8290 N   0  0  0  0  0  0  0  0  0  0  0  0
  -94.1410    8.9760  -49.7020 C   0  0  0  0  0  0  0  0  0  0  0  0
  -94.5990    9.7570  -50.8010 C   0  0  0  0  0  0  0  0  0  0  0  0
  -95.9800   10.4200  -49.0610 C   0  0  0  0  0  0  0  0  0  0  0  0
  -97.8340   10.8440  -47.4320 C   0  0  0  0  0  0  0  0  0  0  0  0
  -93.0200    7.9930  -49.9040 C   0  0  0  0  0  0  0  0  0  0  0  0
  -92.6050    7.1520  -48.7390 C   0  0  0  0  0  0  0  0  0  0  0  0
  -91.2760    7.1740  -48.2250 C   0  0  0  0  0  0  0  0  0  0  0  0
  -90.9940    6.3470  -47.1150 C   0  0  0  0  0  0  0  0  0  0  0  0
  -91.9840    5.5300  -46.5360 C   0  0  0  0  0  0  0  0  0  0  0  0
  -93.3010    5.5000  -47.0460 C   0  0  0  0  0  0  0  0  0  0  0  0
  -93.6160    6.3230  -48.1630 C   0  0  0  0  0  0  0  0  0  0  0  0
  -97.6700    9.6530  -46.6900 C   0  0  0  0  0  0  0  0  0  0  0  0
  -98.5400    9.4330  -45.6220 C   0  0  0  0  0  0  0  0  0  0  0  0
  -99.5230   10.3940  -45.3440 C   0  0  0  0  0  0  0  0  0  0  0  0
  -99.6730   11.5760  -46.0820 C   0  0  0  0  0  0  0  0  0  0  0  0
  -98.8160   11.8100  -47.1420 C   0  0  0  0  0  0  0  0  0  0  0  0
  -90.1750    8.0560  -48.8280 C   0  0  0  0  0  0  0  0  0  0  0  0
  -92.4920    7.8800  -51.0250 O   0  0  0  0  0  0  0  0  0  0  0  0
 -100.9730   11.3310  -43.2960 O   0  0  0  0  0  0  0  0  0  0  0  0
 -101.4580    9.0060  -44.4850 O   0  0  0  0  0  0  0  0  0  0  0  0
  -94.9840    9.3050  -48.3360 S   0  0  0  0  0  0  0  0  0  0  0  0
 -100.6370   10.1240  -44.0380 S   0  0  0  0  0  0  0  0  0  0  0  0
  1  7  2  0  0  0  0
  2  8  1  0  0  0  0
  3  6  1  0  0  0  0
  5 25  1  0  0  0  0
  6  1  1  0  0  0  0
  6  5  2  0  0  0  0
  7  2  1  0  0  0  0
  7 25  1  0  0  0  0
  8 20  2  0  0  0  0
  8 16  1  0  0  0  0
  9  5  1  0  0  0  0
  9 10  1  0  0  0  0
 10 11  2  0  0  0  0
 10 15  1  0  0  0  0
 11 12  1  0  0  0  0
 12 13  2  0  0  0  0
 14 13  1  0  0  0  0
 15 14  2  0  0  0  0
 16 17  2  0  0  0  0
 17 18  1  0  0  0  0
 18 26  1  0  0  0  0
 19 18  2  0  0  0  0
 20 19  1  0  0  0  0
 21 11  1  0  0  0  0
 22  9  2  0  0  0  0
 24 26  2  0  0  0  0
 26 23  2  0  0  0  0
 26  4  1  0  0  0  0
M  END
